*|DSPF      1.5
*|DESIGN    "c499_clk_opFF"
*|DATE      "2013-Oct-22 00:07:21 (2013-Oct-21 18:37:21 GMT)"
*|VENDOR    "Cadence Design Systems Inc."
*|PROGRAM   "Cadence Extraction QRC"
*|VERSION   "8.1.5-p014 Mon Aug 16 19:43:08 PDT 2010"
*|DIVIDER   /
*|DELIMITER :
*|BUSBIT []
*
*
*  Netlist output written for 'generic' target
*
** COMMENTS 
** DESIGN_FLOW "TEMPERATURE  " "TECH_VERSION GSCLib_0.18um_6layer" "CAPACITANCE_MODE default"
** TECH_FILE /home/users/nanditha/tmp/_auto_qrc_tech/qrcTechFile 
** TECH_FILE_TIME_STAMP Fri Oct 24 09:51:57 2003 
** TECH_FILE_VERSION 3.1.3d 
*
*
*  Top-level subcircuit:  c499_clk_opFF
*
*
.SUBCKT c499_clk_opFF
+       clk N1 N5 N9 N13 N17 N21 N25 N29 N33 N37 N41 N45 N49 N53 N57 N61 N65 N69
+       N73 N77 N81 N85 N89 N93 N97 N101 N105 N109 N113 N117 N121 N125 N129 N130
+       N131 N132 N133 N134 N135 N136 N137 Qout_N724 Qout_N725 Qout_N726
+       Qout_N727 Qout_N728 Qout_N729 Qout_N730 Qout_N731 Qout_N732 Qout_N733
+       Qout_N734 Qout_N735 Qout_N736 Qout_N737 Qout_N738 Qout_N739 Qout_N740
+       Qout_N741 Qout_N742 Qout_N743 Qout_N744 Qout_N745 Qout_N746 Qout_N747
+       Qout_N748 Qout_N749 Qout_N750 Qout_N751 Qout_N752 Qout_N753 Qout_N754
+       Qout_N755
*
*
* Ground nets
*
*
*|GROUND_NET 0
*
*
* Nets
*
*
*|NET N13 6.17639e-15
*|P (N13 I 0.0 71.6 0.15)
*|I (iDFF_4/q_reg:D iDFF_4/q_reg D I 0.0 71.6 65.5)
C1 iDFF_4/q_reg:D 0 1.86274e-16
C2 N13 0 4.18369e-15
C3 N13:4 0 1.65296e-15
R1 iDFF_4/q_reg:D N13:4 12.3333
R2 N13 N13:4 16.3833
*
*|NET N1 4.67654e-15
*|P (N1 I 0.0 78.8 0.15)
*|I (iDFF_1/q_reg:D iDFF_1/q_reg D I 0.0 78.8 65.5)
C4 N1 0 3.52533e-15
C5 iDFF_1/q_reg:D 0 1.1313e-16
C6 N1:2 0 1.03808e-15
R3 N1 N1:2 43.05
R4 iDFF_1/q_reg:D N1:2 10.7333
*
*|NET N131 4.92012e-15
*|P (N131 I 0.0 97.2 0.15)
*|I (iDFF_35/q_reg:D iDFF_35/q_reg D I 0.0 97.2 54.5)
C7 N131 0 4.77275e-15
C8 iDFF_35/q_reg:D 0 1.47374e-16
R5 N131 iDFF_35/q_reg:D 24.5167
*
*|NET Qout_N728 2.69497e-15
*|P (Qout_N728 O 0.0 92.4 0.15)
*|I (oDFF_5/q_reg:Q oDFF_5/q_reg Q O 0.0 92.4 41.5)
C9 Qout_N728 0 2.59069e-15
C10 oDFF_5/q_reg:Q 0 1.04278e-16
R6 oDFF_5/q_reg:Q Qout_N728 20.1833
*
*|NET Qout_N739 3.32326e-15
*|P (Qout_N739 O 0.0 62 249.85)
*|I (oDFF_16/q_reg:Q oDFF_16/q_reg Q O 0.0 62 198.5)
C11 Qout_N739 0 5.96796e-17
C12 oDFF_16/q_reg:Q 0 3.26358e-15
R7 oDFF_16/q_reg:Q Qout_N739 23.5167
*
*|NET N727 1.77257e-15
*|I (DFF_4/q_reg:D DFF_4/q_reg D I 0.0 46 54.5)
*|I (c0/U87:Y c0/U87 Y O 0.0 62.8 61.5)
C13 DFF_4/q_reg:D 0 8.8421e-16
C14 c0/U87:Y 0 1.18219e-16
C15 N727:2 0 7.70145e-16
R8 c0/U87:Y N727:2 24.2667
R9 DFF_4/q_reg:D N727:2 9.26667
*
*|NET Q_N727 2.007e-15
*|I (oDFF_4/q_reg:D oDFF_4/q_reg D I 0.0 67.6 45.5)
*|I (DFF_4/q_reg:Q DFF_4/q_reg Q O 0.0 51.6 51.5)
C16 oDFF_4/q_reg:D 0 6.51495e-16
C17 DFF_4/q_reg:Q 0 1.35551e-15
R10 DFF_4/q_reg:Q oDFF_4/q_reg:D 20.1333
*
*|NET Qout_N729 5.26788e-15
*|P (Qout_N729 O 0.0 0.15 108.5)
*|I (oDFF_6/q_reg:Q oDFF_6/q_reg Q O 0.0 78.8 108.5)
C18 oDFF_6/q_reg:Q 0 4.97621e-16
C19 Qout_N729 0 3.53716e-15
C20 Qout_N729:5 0 9.1377e-16
R11 oDFF_6/q_reg:Q Qout_N729:5 44.3067
R12 Qout_N729 Qout_N729:5 16.3
*
*|NET N5 4.98086e-15
*|P (N5 I 0.0 0 114.5)
*|I (iDFF_2/q_reg:D iDFF_2/q_reg D I 0.0 78 114.5)
C21 N5 0 2.6236e-15
C22 iDFF_2/q_reg:D 0 5.12382e-16
C23 N5:3 0 1.84488e-15
R13 N5 N5:3 12.8333
R14 iDFF_2/q_reg:D N5:3 44.5733
*
*|NET N9 3.65344e-15
*|P (N9 I 0.0 0 114.5)
*|I (iDFF_3/q_reg:D iDFF_3/q_reg D I 0.0 53.2 114.5)
C24 N9 0 2.11658e-15
C25 iDFF_3/q_reg:D 0 1.8127e-16
C26 N9:3 0 1.35559e-15
R15 N9 N9:3 18.7883
R16 iDFF_3/q_reg:D N9:3 18.2
*
*|NET N25 2.98655e-15
*|P (N25 I 0.0 0 105.5)
*|I (iDFF_7/q_reg:D iDFF_7/q_reg D I 0.0 43.6 105.5)
C27 N25 0 2.83509e-15
C28 iDFF_7/q_reg:D 0 1.51453e-16
R17 N25 iDFF_7/q_reg:D 27.2333
*
*|NET Qout_N725 3.35527e-15
*|P (Qout_N725 O 0.0 0 91.5)
*|I (oDFF_2/q_reg:Q oDFF_2/q_reg Q O 0.0 42 91.5)
C29 Qout_N725 0 1.30489e-15
C30 oDFF_2/q_reg:Q 0 2.05038e-15
R18 oDFF_2/q_reg:Q Qout_N725 26.7
*
*|NET Qout_N730 3.22817e-15
*|P (Qout_N730 O 0.0 0 111.5)
*|I (oDFF_7/q_reg:Q oDFF_7/q_reg Q O 0.0 40.4 111.5)
C31 Qout_N730 0 1.25546e-15
C32 oDFF_7/q_reg:Q 0 1.97271e-15
R19 oDFF_7/q_reg:Q Qout_N730 26.1667
*
*|NET Qout_N731 3.9767e-15
*|P (Qout_N731 O 0.0 0 68.5)
*|I (oDFF_8/q_reg:Q oDFF_8/q_reg Q O 0.0 49.2 68.5)
C33 Qout_N731 0 1.5057e-15
C34 oDFF_8/q_reg:Q 0 2.471e-15
R20 oDFF_8/q_reg:Q Qout_N731 29.1
*
*|NET c0/n67 1.01619e-14
*|I (c0/U88:A c0/U88 A I 0.0 66 72.5)
*|I (c0/U118:Y c0/U118 Y O 0.0 78 84.5)
*|I (c0/U10:A c0/U10 A I 0.0 68.4 133.5)
*|I (c0/U117:B c0/U117 B I 0.0 88.4 124.5)
*|I (c0/U116:B c0/U116 B I 0.0 80.4 134.5)
*|I (c0/U78:A c0/U78 A I 0.0 65.2 87.5)
C35 c0/U88:A 0 7.43027e-16
C36 c0/U118:Y 0 6.13781e-16
C37 c0/U10:A 0 3.23184e-16
C38 c0/U117:B 0 1.97746e-16
C39 c0/U116:B 0 1.25679e-16
C40 c0/U78:A 0 1.40273e-16
C41 c0/n67:10 0 1.52049e-15
C42 c0/n67:12 0 1.38684e-15
C43 c0/n67:14 0 1.23322e-15
R21 c0/U88:A c0/n67:10 10.4
R22 c0/U118:Y c0/n67:10 23.2
R23 c0/U118:Y c0/n67:12 14.0667
R24 c0/U116:B c0/U10:A 52.7735
R25 c0/U10:A c0/n67:14 37.585
R26 c0/U117:B c0/n67:14 22.7333
R27 c0/U116:B c0/n67:14 31.5776
R28 c0/U78:A c0/n67:10 7.66667
R29 c0/n67:12 c0/n67:14 17.0667
*
*|NET IN_N5 4.70527e-15
*|I (iDFF_2/q_reg:Q iDFF_2/q_reg Q O 0.0 83.6 111.5)
*|I (c0/U153:B c0/U153 B I 0.0 75.6 126.5)
*|I (c0/U136:B c0/U136 B I 0.0 78.8 126.5)
*|I (c0/U91:A c0/U91 A I 0.0 76.4 93.5)
C44 iDFF_2/q_reg:Q 0 1.07223e-15
C45 c0/U153:B 0 2.80526e-16
C46 c0/U136:B 0 6.93381e-16
C47 c0/U91:A 0 9.29894e-16
C48 IN_N5:5 0 1.72925e-15
R30 iDFF_2/q_reg:Q IN_N5:5 11.7333
R31 iDFF_2/q_reg:Q c0/U136:B 29.8667
R32 c0/U91:A IN_N5:5 22.2667
R33 c0/U136:B c0/U153:B 1.06667
*
*|NET IN_N9 2.6016e-15
*|I (iDFF_3/q_reg:Q iDFF_3/q_reg Q O 0.0 58.8 118.5)
*|I (c0/U153:A c0/U153 A I 0.0 70.8 126.5)
*|I (c0/U128:A c0/U128 A I 0.0 62.8 126.5)
*|I (c0/U89:A c0/U89 A I 0.0 58.8 126.5)
C49 iDFF_3/q_reg:Q 0 1.05656e-15
C50 c0/U153:A 0 3.5829e-16
C51 c0/U128:A 0 7.40645e-16
C52 c0/U89:A 0 4.46112e-16
R34 iDFF_3/q_reg:Q c0/U89:A 15.4667
R35 c0/U89:A c0/U128:A 1.33333
R36 c0/U128:A c0/U153:A 28.2667
*
*|NET IN_N13 2.82597e-15
*|I (iDFF_4/q_reg:Q iDFF_4/q_reg Q O 0.0 66 66.5)
*|I (c0/U154:B c0/U154 B I 0.0 67.6 86.5)
*|I (c0/U120:B c0/U120 B I 0.0 66.8 93.5)
*|I (c0/U87:A c0/U87 A I 0.0 65.2 66.5)
C53 iDFF_4/q_reg:Q 0 3.38649e-16
C54 c0/U154:B 0 8.16303e-16
C55 c0/U120:B 0 1.81086e-16
C56 c0/U87:A 0 9.09717e-17
C57 IN_N13:4 0 1.39896e-15
R37 iDFF_4/q_reg:Q c0/U87:A 0.266667
R38 iDFF_4/q_reg:Q IN_N13:4 20.7333
R39 c0/U120:B c0/U154:B 15.4
R40 c0/U154:B IN_N13:4 11.4
*
*|NET IN_N17 3.42852e-15
*|I (iDFF_5/q_reg:Q iDFF_5/q_reg Q O 0.0 93.2 66.5)
*|I (c0/U175:A c0/U175 A I 0.0 89.2 73.5)
*|I (c0/U158:A c0/U158 A I 0.0 85.2 86.5)
*|I (c0/U83:A c0/U83 A I 0.0 85.2 66.5)
C58 iDFF_5/q_reg:Q 0 5.17452e-16
C59 c0/U175:A 0 5.17831e-16
C60 c0/U158:A 0 1.79475e-16
C61 c0/U83:A 0 7.57042e-16
C62 IN_N17:6 0 1.45672e-15
R41 iDFF_5/q_reg:Q IN_N17:6 222.721
R42 iDFF_5/q_reg:Q c0/U175:A 94.1903
R43 iDFF_5/q_reg:Q c0/U83:A 35.9402
R44 c0/U83:A IN_N17:6 222.721
R45 c0/U83:A c0/U175:A 94.1903
R46 c0/U158:A IN_N17:6 9.73333
R47 c0/U175:A IN_N17:6 24.9198
*
*|NET IN_N25 3.57418e-15
*|I (iDFF_7/q_reg:Q iDFF_7/q_reg Q O 0.0 49.2 103.5)
*|I (c0/U157:B c0/U157 B I 0.0 58.8 93.5)
*|I (c0/U127:B c0/U127 B I 0.0 59.6 113.5)
*|I (c0/U79:A c0/U79 A I 0.0 59.6 106.5)
C63 iDFF_7/q_reg:Q 0 1.0252e-15
C64 c0/U157:B 0 1.31522e-15
C65 c0/U127:B 0 5.75038e-16
C66 c0/U79:A 0 6.58727e-16
R48 iDFF_7/q_reg:Q c0/U79:A 66.9325
R49 iDFF_7/q_reg:Q c0/U127:B 91.3349
R50 iDFF_7/q_reg:Q c0/U157:B 54.8562
R51 c0/U79:A c0/U127:B 18.6935
R52 c0/U79:A c0/U157:B 67.4902
R53 c0/U127:B c0/U157:B 92.0961
*
*|NET IN_N29 2.76528e-15
*|I (iDFF_8/q_reg:Q iDFF_8/q_reg Q O 0.0 49.2 88.5)
*|I (c0/U157:A c0/U157 A I 0.0 54 93.5)
*|I (c0/U120:A c0/U120 A I 0.0 62 93.5)
*|I (c0/U77:A c0/U77 A I 0.0 59.6 86.5)
C67 iDFF_8/q_reg:Q 0 5.15208e-16
C68 c0/U157:A 0 1.17577e-15
C69 c0/U120:A 0 3.00947e-16
C70 c0/U77:A 0 7.73351e-16
R54 iDFF_8/q_reg:Q c0/U157:A 28.8667
R55 c0/U77:A c0/U157:A 55.3531
R56 c0/U77:A c0/U120:A 18.9181
R57 c0/U120:A c0/U157:A 45.6346
*
*|NET IN_N41 4.42801e-15
*|I (iDFF_11/q_reg:Q iDFF_11/q_reg Q O 0.0 60.4 141.5)
*|I (c0/U166:B c0/U166 B I 0.0 64.4 153.5)
*|I (c0/U127:A c0/U127 A I 0.0 64.4 113.5)
*|I (c0/U69:A c0/U69 A I 0.0 58.8 153.5)
C71 iDFF_11/q_reg:Q 0 1.00342e-15
C72 c0/U166:B 0 4.11668e-16
C73 c0/U127:A 0 3.01238e-16
C74 c0/U69:A 0 1.98829e-16
C75 IN_N41:5 0 2.51286e-15
R58 iDFF_11/q_reg:Q IN_N41:5 15.6667
R59 iDFF_11/q_reg:Q c0/U69:A 20.7867
R60 iDFF_11/q_reg:Q c0/U166:B 51.9667
R61 c0/U69:A c0/U166:B 1.91582
R62 c0/U127:A IN_N41:5 21.1333
*
*|NET N725 3.23748e-15
*|I (DFF_2/q_reg:D DFF_2/q_reg D I 0.0 55.6 85.5)
*|I (c0/U91:Y c0/U91 Y O 0.0 78.8 91.5)
C76 DFF_2/q_reg:D 0 2.68985e-15
C77 c0/U91:Y 0 5.47628e-16
R63 c0/U91:Y DFF_2/q_reg:D 48.1333
*
*|NET N726 1.10756e-15
*|I (DFF_3/q_reg:D DFF_3/q_reg D I 0.0 47.6 125.5)
*|I (c0/U89:Y c0/U89 Y O 0.0 56.4 125.5)
C78 DFF_3/q_reg:D 0 5.421e-16
C79 c0/U89:Y 0 5.6546e-16
R64 c0/U89:Y DFF_3/q_reg:D 28.5333
*
*|NET N730 1.25513e-15
*|I (DFF_7/q_reg:D DFF_7/q_reg D I 0.0 55.6 105.5)
*|I (c0/U79:Y c0/U79 Y O 0.0 62 104.5)
C80 DFF_7/q_reg:D 0 1.09851e-16
C81 c0/U79:Y 0 1.50949e-16
C82 N730:2 0 9.94327e-16
R65 c0/U79:Y N730:2 21.3333
R66 DFF_7/q_reg:D N730:2 6.73333
*
*|NET N731 1.21018e-15
*|I (DFF_8/q_reg:D DFF_8/q_reg D I 0.0 52.4 74.5)
*|I (c0/U77:Y c0/U77 Y O 0.0 62 81.5)
C83 DFF_8/q_reg:D 0 7.73615e-16
C84 c0/U77:Y 0 4.36565e-16
R67 c0/U77:Y DFF_8/q_reg:D 31.1333
*
*|NET Q_N725 1.17101e-15
*|I (oDFF_2/q_reg:D oDFF_2/q_reg D I 0.0 47.6 94.5)
*|I (DFF_2/q_reg:Q DFF_2/q_reg Q O 0.0 50 88.5)
C85 oDFF_2/q_reg:D 0 7.15313e-16
C86 DFF_2/q_reg:Q 0 4.55699e-16
R68 DFF_2/q_reg:Q oDFF_2/q_reg:D 28.4
*
*|NET c0/n13 4.08638e-15
*|I (c0/U171:A c0/U171 A I 0.0 88.4 153.5)
*|I (c0/U64:A c0/U64 A I 0.0 96.4 173.5)
*|I (c0/U13:Y c0/U13 Y O 0.0 102.8 155.5)
C87 c0/U171:A 0 9.12304e-16
C88 c0/U64:A 0 1.30447e-16
C89 c0/U13:Y 0 1.52357e-16
C90 c0/n13:3 0 2.89127e-15
R69 c0/U13:Y c0/n13:3 14.9333
R70 c0/U64:A c0/n13:3 18.8
R71 c0/U171:A c0/n13:3 16.1333
*
*|NET c0/n66 2.06585e-16
*|I (c0/U78:Y c0/U78 Y O 0.0 66 86.5)
*|I (c0/U77:B c0/U77 B I 0.0 64.4 86.5)
C91 c0/U77:B 0 2.06585e-16
R72 c0/U78:Y c0/U77:B 0.533333
*
*|NET c0/n69 1.91307e-16
*|I (c0/U80:Y c0/U80 Y O 0.0 66 106.5)
*|I (c0/U79:B c0/U79 B I 0.0 64.4 106.5)
C92 c0/U79:B 0 1.91307e-16
R73 c0/U80:Y c0/U79:B 0.533333
*
*|NET c0/n72 1.35931e-15
*|I (c0/U84:Y c0/U84 Y O 0.0 93.2 71.5)
*|I (c0/U83:B c0/U83 B I 0.0 90 66.5)
C93 c0/U84:Y 0 3.93614e-16
C94 c0/U83:B 0 9.65694e-16
R74 c0/U84:Y c0/U83:B 28.8667
*
*|NET c0/n73 1.07537e-15
*|I (c0/U88:Y c0/U88 Y O 0.0 65.2 72.5)
*|I (c0/U87:B c0/U87 B I 0.0 60.4 66.5)
C95 c0/U88:Y 0 4.66945e-16
C96 c0/U87:B 0 6.08424e-16
R75 c0/U88:Y c0/U87:B 16.4
*
*|NET c0/n75 1.26824e-15
*|I (c0/U90:Y c0/U90 Y O 0.0 63.6 131.5)
*|I (c0/U89:B c0/U89 B I 0.0 54 126.5)
C97 c0/U90:Y 0 4.84601e-16
C98 c0/U89:B 0 7.83641e-16
R76 c0/U90:Y c0/U89:B 30.4667
*
*|NET c0/n76 2.37753e-15
*|I (c0/U92:Y c0/U92 Y O 0.0 89.2 104.5)
*|I (c0/U91:B c0/U91 B I 0.0 81.2 93.5)
C99 c0/U92:Y 0 1.17899e-16
C100 c0/U91:B 0 9.44674e-16
C101 c0/n76:3 0 1.31496e-15
R77 c0/U92:Y c0/n76:3 9.73333
R78 c0/U91:B c0/n76:3 22.2
*
*|NET c0/n77 2.31338e-15
*|I (c0/U94:Y c0/U94 Y O 0.0 84.4 92.5)
*|I (c0/U93:B c0/U93 B I 0.0 78.8 73.5)
C102 c0/U94:Y 0 3.72964e-16
C103 c0/U93:B 0 1.94042e-15
R79 c0/U94:Y c0/U93:B 21
*
*|NET c0/n96 9.60343e-16
*|I (c0/U113:Y c0/U113 Y O 0.0 88.4 134.5)
*|I (c0/U112:B c0/U112 B I 0.0 98 135.5)
C104 c0/U113:Y 0 8.4425e-16
C105 c0/U112:B 0 1.16093e-16
R80 c0/U113:Y c0/U112:B 3.53333
*
*|NET c0/n99 9.39929e-16
*|I (c0/U119:Y c0/U119 Y O 0.0 71.6 91.5)
*|I (c0/U118:B c0/U118 B I 0.0 75.6 86.5)
C106 c0/U119:Y 0 3.99178e-16
C107 c0/U118:B 0 5.40751e-16
R81 c0/U119:Y c0/U118:B 28.6
*
*|NET c0/n101 1.80383e-15
*|I (c0/U120:Y c0/U120 Y O 0.0 64.4 94.5)
*|I (c0/U119:B c0/U119 B I 0.0 74 93.5)
C108 c0/U120:Y 0 5.19484e-16
C109 c0/U119:B 0 2.4519e-16
C110 c0/n101:2 0 1.03915e-15
R82 c0/U120:Y c0/n101:2 8.06667
R83 c0/U119:B c0/n101:2 21.0667
*
*|NET c0/n108 1.31117e-15
*|I (c0/U128:Y c0/U128 Y O 0.0 65.2 121.5)
*|I (c0/U126:A c0/U126 A I 0.0 69.2 113.5)
C111 c0/U128:Y 0 3.53239e-16
C112 c0/U126:A 0 9.57927e-16
R84 c0/U128:Y c0/U126:A 29.6
*
*|NET c0/n109 1.63284e-15
*|I (c0/U127:Y c0/U127 Y O 0.0 62 117.5)
*|I (c0/U126:B c0/U126 B I 0.0 74 113.5)
C113 c0/U127:Y 0 8.40905e-16
C114 c0/U126:B 0 7.91937e-16
R85 c0/U127:Y c0/U126:B 30.9333
*
*|NET c0/n129 1.94019e-15
*|I (c0/U154:Y c0/U154 Y O 0.0 70 88.5)
*|I (c0/U152:A c0/U152 A I 0.0 73.2 106.5)
C115 c0/U154:Y 0 4.66181e-16
C116 c0/U152:A 0 6.66149e-16
C117 c0/n129:2 0 8.07861e-16
R86 c0/U154:Y c0/n129:2 14.8667
R87 c0/U152:A c0/n129:2 30.6
*
*|NET c0/n132 7.17698e-16
*|I (c0/U158:Y c0/U158 Y O 0.0 87.6 88.5)
*|I (c0/U156:A c0/U156 A I 0.0 87.6 93.5)
C118 c0/U158:Y 0 5.59755e-16
C119 c0/U156:A 0 1.57943e-16
R88 c0/U158:Y c0/U156:A 14.4667
*
*|NET c0/n133 4.7238e-15
*|I (c0/U157:Y c0/U157 Y O 0.0 56.4 94.5)
*|I (c0/U156:B c0/U156 B I 0.0 92.4 93.5)
C120 c0/U157:Y 0 1.85122e-15
C121 c0/U156:B 0 2.21411e-16
C122 c0/n133:2 0 2.65116e-15
R89 c0/U157:Y c0/n133:2 19.2667
R90 c0/U156:B c0/n133:2 18.6667
*
*|NET c0/n142 8.04811e-16
*|I (c0/U171:Y c0/U171 Y O 0.0 86 151.5)
*|I (c0/U169:A c0/U169 A I 0.0 83.6 146.5)
C123 c0/U171:Y 0 1.32662e-16
C124 c0/U169:A 0 6.72149e-16
R91 c0/U171:Y c0/U169:A 15.2667
*
*|NET c0/n143 6.77798e-16
*|I (c0/U170:Y c0/U170 Y O 0.0 73.2 145.5)
*|I (c0/U169:B c0/U169 B I 0.0 78.8 146.5)
C125 c0/U170:Y 0 5.49239e-16
C126 c0/U169:B 0 1.28559e-16
R92 c0/U170:Y c0/U169:B 2.2
*
*|NET c0/n145 1.26523e-15
*|I (c0/U174:Y c0/U174 Y O 0.0 99.6 78.5)
*|I (c0/U173:B c0/U173 B I 0.0 96.4 86.5)
C127 c0/U174:Y 0 1.49705e-16
C128 c0/U173:B 0 1.39723e-16
C129 c0/n145:2 0 9.75803e-16
R93 c0/U174:Y c0/n145:2 20.2667
R94 c0/U173:B c0/n145:2 9.06667
*
*|NET c0/n147 1.40988e-15
*|I (c0/U175:Y c0/U175 Y O 0.0 86.8 74.5)
*|I (c0/U174:B c0/U174 B I 0.0 97.2 73.5)
C130 c0/U175:Y 0 1.01111e-15
C131 c0/U174:B 0 3.98766e-16
R95 c0/U175:Y c0/U174:B 29.4
*
*|NET c0/n70 7.22238e-15
*|I (c0/U80:A c0/U80 A I 0.0 65.2 107.5)
*|I (c0/U125:Y c0/U125 Y O 0.0 86.8 118.5)
*|I (c0/U90:A c0/U90 A I 0.0 64.4 132.5)
*|I (c0/U9:A c0/U9 A I 0.0 74 133.5)
*|I (c0/U117:A c0/U117 A I 0.0 86.8 126.5)
*|I (c0/U115:B c0/U115 B I 0.0 86.8 145.5)
C132 c0/U80:A 0 5.59786e-16
C133 c0/U125:Y 0 5.039e-16
C134 c0/U90:A 0 3.05742e-16
C135 c0/U9:A 0 7.46529e-17
C136 c0/U117:A 0 5.9768e-16
C137 c0/U115:B 0 4.98343e-16
C138 c0/n70:8 0 9.76542e-16
C139 c0/n70:10 0 5.50039e-16
R96 c0/U80:A c0/n70:8 8.06667
R97 c0/U125:Y c0/U117:A 15.4667
R98 c0/U90:A c0/n70:8 154.158
R99 c0/U90:A c0/n70:10 17.4818
R100 c0/U9:A c0/n70:10 13.1333
R101 c0/U117:A c0/U115:B 28.8333
R102 c0/U117:A c0/n70:10 27.2606
R103 c0/U115:B c0/n70:10 34.6
R104 c0/n70:8 c0/n70:10 34.6068
*
*|NET IN_N45 4.73633e-15
*|I (iDFF_12/q_reg:Q iDFF_12/q_reg Q O 0.0 49.2 168.5)
*|I (c0/U166:A c0/U166 A I 0.0 69.2 153.5)
*|I (c0/U121:B c0/U121 B I 0.0 62.8 146.5)
*|I (c0/U67:A c0/U67 A I 0.0 59.6 173.5)
C140 iDFF_12/q_reg:Q 0 1.08802e-15
C141 c0/U166:A 0 6.4052e-16
C142 c0/U121:B 0 1.14035e-16
C143 c0/U67:A 0 4.13073e-16
C144 IN_N45:6 0 2.48068e-15
R105 iDFF_12/q_reg:Q IN_N45:6 61.3045
R106 iDFF_12/q_reg:Q c0/U67:A 41.8335
R107 c0/U67:A IN_N45:6 54.5208
R108 c0/U121:B IN_N45:6 12.8
R109 c0/U166:A IN_N45:6 17.2667
*
*|NET N729 1.21801e-15
*|I (DFF_6/q_reg:D DFF_6/q_reg D I 0.0 96.4 105.5)
*|I (c0/U81:Y c0/U81 Y O 0.0 102.8 105.5)
C145 DFF_6/q_reg:D 0 1.01483e-15
C146 c0/U81:Y 0 2.03173e-16
R110 c0/U81:Y DFF_6/q_reg:D 27.7333
*
*|NET N734 1.2568e-15
*|I (DFF_11/q_reg:D DFF_11/q_reg D I 0.0 47.6 154.5)
*|I (c0/U69:Y c0/U69 Y O 0.0 55.6 154.5)
C147 DFF_11/q_reg:D 0 7.16478e-16
C148 c0/U69:Y 0 5.40325e-16
R111 c0/U69:Y DFF_11/q_reg:D 28.2667
*
*|NET Q_N734 1.2307e-15
*|I (oDFF_11/q_reg:D oDFF_11/q_reg D I 0.0 46.8 145.5)
*|I (DFF_11/q_reg:Q DFF_11/q_reg Q O 0.0 42 151.5)
C149 oDFF_11/q_reg:D 0 5.60102e-16
C150 DFF_11/q_reg:Q 0 6.706e-16
R112 DFF_11/q_reg:Q oDFF_11/q_reg:D 29.2
*
*|NET c0/n60 2.15738e-15
*|I (c0/U70:Y c0/U70 Y O 0.0 78 152.5)
*|I (c0/U69:B c0/U69 B I 0.0 54 153.5)
C151 c0/U70:Y 0 2.09284e-16
C152 c0/U69:B 0 1.38772e-16
C153 c0/n60:2 0 1.80932e-15
R113 c0/U70:Y c0/n60:2 27.5333
R114 c0/U69:B c0/n60:2 7.06667
*
*|NET c0/n100 3.75544e-15
*|I (c0/U121:Y c0/U121 Y O 0.0 65.2 141.5)
*|I (c0/U119:A c0/U119 A I 0.0 69.2 93.5)
C154 c0/U121:Y 0 9.31027e-17
C155 c0/U119:A 0 1.49559e-15
C156 c0/n100:3 0 8.84166e-16
C157 c0/n100:4 0 1.28258e-15
R115 c0/U121:Y c0/n100:4 10.7333
R116 c0/U119:A c0/n100:3 11.7333
R117 c0/n100:3 c0/n100:4 33.2667
*
*|NET c0/n106 2.1539e-15
*|I (c0/U129:Y c0/U129 Y O 0.0 103.6 111.5)
*|I (c0/U125:A c0/U125 A I 0.0 89.2 113.5)
C158 c0/U129:Y 0 1.65313e-16
C159 c0/U125:A 0 2.02963e-16
C160 c0/n106:2 0 1.78562e-15
R118 c0/U129:Y c0/n106:2 24
R119 c0/U125:A c0/n106:2 7.06667
*
*|NET c0/n107 2.155e-15
*|I (c0/U126:Y c0/U126 Y O 0.0 71.6 115.5)
*|I (c0/U125:B c0/U125 B I 0.0 84.4 113.5)
C161 c0/U126:Y 0 1.77026e-15
C162 c0/U125:B 0 3.84733e-16
R120 c0/U126:Y c0/U125:B 30.5333
*
*|NET c0/n114 2.75826e-15
*|I (c0/U137:Y c0/U137 Y O 0.0 114.8 116.5)
*|I (c0/U133:A c0/U133 A I 0.0 94.8 113.5)
C163 c0/U137:Y 0 1.55944e-16
C164 c0/U133:A 0 8.77768e-16
C165 c0/n114:2 0 1.72454e-15
R121 c0/U137:Y c0/n114:2 24
R122 c0/U133:A c0/n114:2 9.26667
*
*|NET c0/n115 1.40188e-15
*|I (c0/U134:Y c0/U134 Y O 0.0 93.2 121.5)
*|I (c0/U133:B c0/U133 B I 0.0 90 113.5)
C166 c0/U134:Y 0 5.57517e-16
C167 c0/U133:B 0 8.4436e-16
R123 c0/U134:Y c0/U133:B 29.3333
*
*|NET c0/n116 1.74686e-15
*|I (c0/U136:Y c0/U136 Y O 0.0 81.2 124.5)
*|I (c0/U134:A c0/U134 A I 0.0 90.8 126.5)
C168 c0/U136:Y 0 1.31868e-15
C169 c0/U134:A 0 4.28184e-16
R124 c0/U136:Y c0/U134:A 29.4667
*
*|NET c0/n117 6.53637e-16
*|I (c0/U135:Y c0/U135 Y O 0.0 100.4 125.5)
*|I (c0/U134:B c0/U134 B I 0.0 95.6 126.5)
C170 c0/U135:Y 0 4.24917e-16
C171 c0/U134:B 0 2.2872e-16
R125 c0/U135:Y c0/U134:B 1.93333
*
*|NET c0/n130 2.65303e-15
*|I (c0/U153:Y c0/U153 Y O 0.0 73.2 121.5)
*|I (c0/U152:B c0/U152 B I 0.0 78 106.5)
C172 c0/U153:Y 0 9.41848e-17
C173 c0/U152:B 0 1.30198e-15
C174 c0/n130:5 0 1.25687e-15
R126 c0/U153:Y c0/n130:5 8.06667
R127 c0/U152:B c0/n130:5 24.1333
*
*|NET IN_N57 6.61449e-15
*|I (c0/U170:B c0/U170 B I 0.0 75.6 146.5)
*|I (iDFF_15/q_reg:Q iDFF_15/q_reg Q O 0.0 60.4 131.5)
*|I (c0/U128:B c0/U128 B I 0.0 67.6 126.5)
*|I (c0/U60:A c0/U60 A I 0.0 59.6 166.5)
C175 c0/U170:B 0 2.36352e-16
C176 iDFF_15/q_reg:Q 0 4.62419e-16
C177 c0/U128:B 0 6.5553e-16
C178 iDFF_15/q_reg:Q 0 7.56606e-16
C179 c0/U60:A 0 5.76794e-16
C180 IN_N57:7 0 2.81047e-15
R128 c0/U170:B IN_N57:7 24.3333
R129 iDFF_15/q_reg:Q c0/U128:B 29.6667
R130 iDFF_15/q_reg:Q IN_N57:7 9.66667
R131 c0/U60:A IN_N57:7 26.0667
*
*|NET c0/n9 5.07389e-15
*|I (c0/U61:B c0/U61 B I 0.0 66.8 164.5)
*|I (c0/U113:A c0/U113 A I 0.0 86.8 133.5)
*|I (c0/U70:B c0/U70 B I 0.0 78.8 155.5)
*|I (c0/U116:A c0/U116 A I 0.0 78.8 132.5)
*|I (c0/U9:Y c0/U9 Y O 0.0 74.8 132.5)
C181 c0/U61:B 0 6.45132e-16
C182 c0/U113:A 0 5.47795e-16
C183 c0/U70:B 0 2.3014e-16
C184 c0/U116:A 0 1.23087e-16
C185 c0/U9:Y 0 3.529e-16
C186 c0/n9:11 0 2.02771e-15
R132 c0/U70:B c0/U61:B 56.5543
R133 c0/U61:B c0/n9:11 61.8562
R134 c0/U113:A c0/n9:11 22.2
R135 c0/U70:B c0/n9:11 15.1099
R136 c0/U116:A c0/U9:Y 1.33333
R137 c0/U116:A c0/n9:11 7.06667
*
*|NET c0/n10 8.2243e-15
*|I (c0/U115:A c0/U115 A I 0.0 88.4 147.5)
*|I (c0/U113:B c0/U113 B I 0.0 87.6 134.5)
*|I (c0/U10:Y c0/U10 Y O 0.0 69.2 138.5)
*|I (c0/U68:B c0/U68 B I 0.0 78.8 175.5)
*|I (c0/U59:B c0/U59 B I 0.0 69.2 164.5)
C187 c0/U115:A 0 1.39705e-16
C188 c0/U113:B 0 9.72738e-16
C189 c0/U10:Y 0 8.1474e-16
C190 c0/U68:B 0 2.78846e-16
C191 c0/U59:B 0 5.89356e-16
C192 c0/n10:9 0 1.66333e-15
C193 c0/n10:11 0 6.46572e-16
R138 c0/U115:A c0/U113:B 49.9471
R139 c0/U115:A c0/n10:9 35.0774
R140 c0/U113:B c0/n10:9 45.7227
R141 c0/U10:Y c0/n10:9 10
R142 c0/U68:B c0/n10:11 23.8667
R143 c0/U59:B c0/n10:9 12.3755
R144 c0/U59:B c0/n10:11 8.78939
R145 c0/n10:9 c0/n10:11 386.733
*
*|NET IN_N61 3.50218e-15
*|I (iDFF_16/q_reg:Q iDFF_16/q_reg Q O 0.0 58.8 174.5)
*|I (c0/U170:A c0/U170 A I 0.0 70.8 146.5)
*|I (c0/U121:A c0/U121 A I 0.0 67.6 146.5)
*|I (c0/U58:A c0/U58 A I 0.0 65.2 173.5)
C194 iDFF_16/q_reg:Q 0 8.02749e-16
C195 c0/U170:A 0 3.19001e-16
C196 c0/U121:A 0 5.64383e-16
C197 c0/U58:A 0 4.66551e-16
C198 IN_N61:6 0 1.3495e-15
R146 iDFF_16/q_reg:Q IN_N61:6 74.7709
R147 iDFF_16/q_reg:Q c0/U58:A 35.0711
R148 c0/U58:A IN_N61:6 65.7583
R149 c0/U121:A IN_N61:6 7.73333
R150 c0/U121:A c0/U170:A 1.06667
*
*|NET N735 9.43417e-16
*|I (DFF_12/q_reg:D DFF_12/q_reg D I 0.0 57.2 185.5)
*|I (c0/U67:Y c0/U67 Y O 0.0 62 178.5)
C199 DFF_12/q_reg:D 0 6.139e-16
C200 c0/U67:Y 0 3.29517e-16
R151 c0/U67:Y DFF_12/q_reg:D 29.5333
*
*|NET N738 9.92458e-16
*|I (DFF_15/q_reg:D DFF_15/q_reg D I 0.0 55.6 165.5)
*|I (c0/U60:Y c0/U60 Y O 0.0 62 162.5)
C201 DFF_15/q_reg:D 0 6.57144e-16
C202 c0/U60:Y 0 3.35314e-16
R152 c0/U60:Y DFF_15/q_reg:D 28.7333
*
*|NET Q_N735 8.68509e-16
*|I (oDFF_12/q_reg:D oDFF_12/q_reg D I 0.0 46.8 185.5)
*|I (DFF_12/q_reg:Q DFF_12/q_reg Q O 0.0 51.6 184.5)
C203 oDFF_12/q_reg:D 0 5.38963e-16
C204 DFF_12/q_reg:Q 0 3.29546e-16
R153 DFF_12/q_reg:Q oDFF_12/q_reg:D 27.5333
*
*|NET c0/n55 2.98089e-16
*|I (c0/U61:Y c0/U61 Y O 0.0 66 165.5)
*|I (c0/U60:B c0/U60 B I 0.0 64.4 166.5)
C205 c0/U61:Y 0 1.60602e-16
C206 c0/U60:B 0 1.37487e-16
R154 c0/U61:Y c0/U60:B 0.866667
*
*|NET c0/n58 1.42804e-15
*|I (c0/U68:Y c0/U68 Y O 0.0 78 173.5)
*|I (c0/U67:B c0/U67 B I 0.0 64.4 173.5)
C207 c0/U68:Y 0 1.75503e-16
C208 c0/U67:B 0 1.25254e-15
R155 c0/U68:Y c0/U67:B 30.1333
*
*|NET clk__L2_N2 2.55578e-14
*|I (DFF_15/q_reg:CLK DFF_15/q_reg CLK I 0.0 53.2 166.5)
*|I (iDFF_12/q_reg:CLK iDFF_12/q_reg CLK I 0.0 46 166.5)
*|I (oDFF_12/q_reg:CLK oDFF_12/q_reg CLK I 0.0 46 186.5)
*|I (oDFF_14/q_reg:CLK oDFF_14/q_reg CLK I 0.0 75.6 193.5)
*|I (oDFF_16/q_reg:CLK oDFF_16/q_reg CLK I 0.0 70 193.5)
*|I (DFF_12/q_reg:CLK DFF_12/q_reg CLK I 0.0 59.6 186.5)
*|I (DFF_16/q_reg:CLK DFF_16/q_reg CLK I 0.0 76.4 187.5)
*|I (DFF_14/q_reg:CLK DFF_14/q_reg CLK I 0.0 82.8 186.5)
*|I (oDFF_11/q_reg:CLK oDFF_11/q_reg CLK I 0.0 47.6 147.5)
*|I (oDFF_3/q_reg:CLK oDFF_3/q_reg CLK I 0.0 47.6 132.5)
*|I (DFF_3/q_reg:CLK DFF_3/q_reg CLK I 0.0 48.4 126.5)
*|I (clk__L2_I2:Y clk__L2_I2 Y O 0.0 66 111.5)
*|I (DFF_7/q_reg:CLK DFF_7/q_reg CLK I 0.0 58 106.5)
*|I (oDFF_6/q_reg:CLK oDFF_6/q_reg CLK I 0.0 82 106.5)
*|I (iDFF_7/q_reg:CLK iDFF_7/q_reg CLK I 0.0 46 106.5)
*|I (oDFF_2/q_reg:CLK oDFF_2/q_reg CLK I 0.0 48.4 92.5)
*|I (DFF_4/q_reg:CLK DFF_4/q_reg CLK I 0.0 48.4 54.5)
*|I (DFF_1/q_reg:CLK DFF_1/q_reg CLK I 0.0 72.4 52.5)
*|I (oDFF_1/q_reg:CLK oDFF_1/q_reg CLK I 0.0 75.6 46.5)
*|I (oDFF_4/q_reg:CLK oDFF_4/q_reg CLK I 0.0 70 46.5)
*|I (iDFF_4/q_reg:CLK iDFF_4/q_reg CLK I 0.0 72.4 66.5)
*|I (DFF_5/q_reg:CLK DFF_5/q_reg CLK I 0.0 84.4 53.5)
*|I (DFF_2/q_reg:CLK DFF_2/q_reg CLK I 0.0 53.2 86.5)
*|I (iDFF_8/q_reg:CLK iDFF_8/q_reg CLK I 0.0 46 86.5)
*|I (iDFF_14/q_reg:CLK iDFF_14/q_reg CLK I 0.0 73.2 166.5)
*|I (oDFF_15/q_reg:CLK oDFF_15/q_reg CLK I 0.0 46 173.5)
*|I (iDFF_16/q_reg:CLK iDFF_16/q_reg CLK I 0.0 50.8 173.5)
*|I (iDFF_11/q_reg:CLK iDFF_11/q_reg CLK I 0.0 52.4 146.5)
*|I (DFF_11/q_reg:CLK DFF_11/q_reg CLK I 0.0 47.6 153.5)
*|I (iDFF_15/q_reg:CLK iDFF_15/q_reg CLK I 0.0 52.4 133.5)
*|I (iDFF_2/q_reg:CLK iDFF_2/q_reg CLK I 0.0 77.2 112.5)
*|I (oDFF_7/q_reg:CLK oDFF_7/q_reg CLK I 0.0 46 113.5)
*|I (iDFF_3/q_reg:CLK iDFF_3/q_reg CLK I 0.0 50.8 113.5)
*|I (DFF_8/q_reg:CLK DFF_8/q_reg CLK I 0.0 52.4 73.5)
*|I (oDFF_8/q_reg:CLK oDFF_8/q_reg CLK I 0.0 52.4 66.5)
*|I (iDFF_1/q_reg:CLK iDFF_1/q_reg CLK I 0.0 76 66.5)
C209 DFF_15/q_reg:CLK 0 5.07776e-16
C210 iDFF_12/q_reg:CLK 0 7.90749e-16
C211 oDFF_12/q_reg:CLK 0 4.26576e-16
C212 oDFF_14/q_reg:CLK 0 1.96819e-16
C213 oDFF_16/q_reg:CLK 0 8.60661e-16
C214 DFF_12/q_reg:CLK 0 9.19521e-16
C215 DFF_16/q_reg:CLK 0 3.67087e-16
C216 DFF_14/q_reg:CLK 0 4.29302e-16
C217 oDFF_11/q_reg:CLK 0 7.31603e-16
C218 oDFF_3/q_reg:CLK 0 4.77416e-16
C219 DFF_3/q_reg:CLK 0 3.28087e-16
C220 clk__L2_I2:Y 0 3.20368e-16
C221 DFF_7/q_reg:CLK 0 1.33354e-15
C222 oDFF_6/q_reg:CLK 0 2.23438e-16
C223 iDFF_7/q_reg:CLK 0 3.72759e-16
C224 oDFF_2/q_reg:CLK 0 2.62409e-16
C225 DFF_4/q_reg:CLK 0 1.20305e-16
C226 DFF_1/q_reg:CLK 0 3.42883e-16
C227 oDFF_1/q_reg:CLK 0 3.87377e-16
C228 oDFF_4/q_reg:CLK 0 4.76376e-16
C229 iDFF_4/q_reg:CLK 0 3.62752e-16
C230 DFF_5/q_reg:CLK 0 5.53606e-16
C231 DFF_2/q_reg:CLK 0 3.76326e-16
C232 iDFF_8/q_reg:CLK 0 5.38072e-16
C233 iDFF_14/q_reg:CLK 0 3.24364e-16
C234 DFF_15/q_reg:CLK 0 1.27826e-16
C235 oDFF_15/q_reg:CLK 0 7.55972e-16
C236 oDFF_15/q_reg:CLK 0 3.00984e-16
C237 oDFF_11/q_reg:CLK 0 3.69985e-16
C238 DFF_11/q_reg:CLK 0 7.38238e-16
C239 oDFF_3/q_reg:CLK 0 3.71212e-16
C240 iDFF_2/q_reg:CLK 0 1.52117e-16
C241 oDFF_7/q_reg:CLK 0 4.74871e-16
C242 oDFF_7/q_reg:CLK 0 3.06151e-16
C243 DFF_8/q_reg:CLK 0 6.53649e-16
C244 oDFF_8/q_reg:CLK 0 6.75942e-16
C245 iDFF_4/q_reg:CLK 0 2.56177e-16
C246 clk__L2_N2:52 0 1.18108e-15
C247 clk__L2_N2:75 0 8.79326e-16
C248 clk__L2_N2:81 0 2.28323e-15
C249 clk__L2_N2:89 0 2.20541e-15
R156 DFF_15/q_reg:CLK iDFF_12/q_reg:CLK 56.5773
R157 oDFF_12/q_reg:CLK DFF_15/q_reg:CLK 706.663
R158 DFF_15/q_reg:CLK DFF_12/q_reg:CLK 868.607
R159 oDFF_11/q_reg:CLK DFF_15/q_reg:CLK 212.396
R160 oDFF_3/q_reg:CLK DFF_15/q_reg:CLK 2925.38
R161 DFF_15/q_reg:CLK DFF_3/q_reg:CLK 4051.44
R162 oDFF_15/q_reg:CLK DFF_15/q_reg:CLK 81.5198
R163 DFF_15/q_reg:CLK DFF_11/q_reg:CLK 151.847
R164 DFF_15/q_reg:CLK clk__L2_N2:89 1406.75
R165 oDFF_12/q_reg:CLK iDFF_12/q_reg:CLK 178.176
R166 DFF_12/q_reg:CLK iDFF_12/q_reg:CLK 219.008
R167 oDFF_11/q_reg:CLK iDFF_12/q_reg:CLK 277.35
R168 oDFF_3/q_reg:CLK iDFF_12/q_reg:CLK 3820.01
R169 DFF_3/q_reg:CLK iDFF_12/q_reg:CLK 5290.45
R170 oDFF_15/q_reg:CLK iDFF_12/q_reg:CLK 20.5541
R171 DFF_11/q_reg:CLK iDFF_12/q_reg:CLK 198.284
R172 iDFF_12/q_reg:CLK clk__L2_N2:89 1836.96
R173 oDFF_12/q_reg:CLK DFF_12/q_reg:CLK 36.0303
R174 oDFF_12/q_reg:CLK oDFF_11/q_reg:CLK 3464.17
R175 oDFF_12/q_reg:CLK oDFF_3/q_reg:CLK 47712.8
R176 oDFF_12/q_reg:CLK DFF_3/q_reg:CLK 66078.9
R177 oDFF_15/q_reg:CLK oDFF_12/q_reg:CLK 118.258
R178 oDFF_12/q_reg:CLK DFF_11/q_reg:CLK 2476.61
R179 oDFF_12/q_reg:CLK clk__L2_N2:89 22944.1
R180 oDFF_16/q_reg:CLK oDFF_14/q_reg:CLK 35.9887
R181 oDFF_14/q_reg:CLK DFF_16/q_reg:CLK 99.3754
R182 oDFF_14/q_reg:CLK DFF_14/q_reg:CLK 118.526
R183 oDFF_16/q_reg:CLK DFF_16/q_reg:CLK 113.868
R184 oDFF_16/q_reg:CLK DFF_14/q_reg:CLK 135.811
R185 oDFF_16/q_reg:CLK DFF_12/q_reg:CLK 42.6
R186 oDFF_11/q_reg:CLK DFF_12/q_reg:CLK 4258.04
R187 oDFF_3/q_reg:CLK DFF_12/q_reg:CLK 58646.9
R188 DFF_12/q_reg:CLK DFF_3/q_reg:CLK 81222
R189 oDFF_15/q_reg:CLK DFF_12/q_reg:CLK 145.359
R190 DFF_12/q_reg:CLK DFF_11/q_reg:CLK 3044.17
R191 DFF_12/q_reg:CLK clk__L2_N2:89 28202.1
R192 DFF_16/q_reg:CLK DFF_14/q_reg:CLK 36.989
R193 oDFF_11/q_reg:CLK oDFF_3/q_reg:CLK 190.154
R194 oDFF_11/q_reg:CLK DFF_3/q_reg:CLK 263.35
R195 oDFF_15/q_reg:CLK oDFF_11/q_reg:CLK 399.622
R196 oDFF_11/q_reg:CLK DFF_11/q_reg:CLK 19.0526
R197 oDFF_11/q_reg:CLK clk__L2_N2:89 91.441
R198 oDFF_3/q_reg:CLK DFF_3/q_reg:CLK 126.936
R199 oDFF_15/q_reg:CLK oDFF_3/q_reg:CLK 5504.09
R200 oDFF_3/q_reg:CLK DFF_11/q_reg:CLK 262.415
R201 oDFF_3/q_reg:CLK clk__L2_N2:89 44.0752
R202 oDFF_15/q_reg:CLK DFF_3/q_reg:CLK 7622.78
R203 DFF_11/q_reg:CLK DFF_3/q_reg:CLK 363.427
R204 DFF_3/q_reg:CLK clk__L2_N2:89 36.3504
R205 DFF_7/q_reg:CLK clk__L2_I2:Y 145.362
R206 clk__L2_I2:Y clk__L2_N2:75 18.1298
R207 DFF_7/q_reg:CLK clk__L2_N2:75 42.3972
R208 DFF_7/q_reg:CLK iDFF_7/q_reg:CLK 86.3008
R209 oDFF_7/q_reg:CLK DFF_7/q_reg:CLK 117.765
R210 DFF_7/q_reg:CLK clk__L2_N2:89 29.2602
R211 oDFF_6/q_reg:CLK clk__L2_N2:75 28.8667
R212 oDFF_7/q_reg:CLK iDFF_7/q_reg:CLK 19.939
R213 iDFF_7/q_reg:CLK clk__L2_N2:89 38.3559
R214 oDFF_2/q_reg:CLK DFF_2/q_reg:CLK 237.998
R215 oDFF_2/q_reg:CLK iDFF_8/q_reg:CLK 215.124
R216 oDFF_2/q_reg:CLK DFF_8/q_reg:CLK 915.465
R217 oDFF_8/q_reg:CLK oDFF_2/q_reg:CLK 1336.3
R218 oDFF_2/q_reg:CLK clk__L2_N2:81 5122.47
R219 oDFF_2/q_reg:CLK clk__L2_N2:89 30.1733
R220 DFF_4/q_reg:CLK clk__L2_N2:81 12.8
R221 oDFF_1/q_reg:CLK DFF_1/q_reg:CLK 139.153
R222 oDFF_4/q_reg:CLK DFF_1/q_reg:CLK 136.477
R223 DFF_1/q_reg:CLK iDFF_4/q_reg:CLK 113.608
R224 DFF_5/q_reg:CLK DFF_1/q_reg:CLK 182.36
R225 DFF_1/q_reg:CLK clk__L2_N2:81 85.1489
R226 oDFF_4/q_reg:CLK oDFF_1/q_reg:CLK 40.6569
R227 oDFF_1/q_reg:CLK iDFF_4/q_reg:CLK 182.432
R228 oDFF_1/q_reg:CLK DFF_5/q_reg:CLK 292.835
R229 oDFF_1/q_reg:CLK clk__L2_N2:81 136.732
R230 oDFF_4/q_reg:CLK iDFF_4/q_reg:CLK 178.924
R231 oDFF_4/q_reg:CLK DFF_5/q_reg:CLK 287.203
R232 oDFF_4/q_reg:CLK clk__L2_N2:81 134.103
R233 DFF_5/q_reg:CLK iDFF_4/q_reg:CLK 204.334
R234 iDFF_4/q_reg:CLK clk__L2_N2:81 95.4089
R235 DFF_5/q_reg:CLK clk__L2_N2:81 35.6991
R236 DFF_2/q_reg:CLK iDFF_8/q_reg:CLK 52.0717
R237 DFF_8/q_reg:CLK DFF_2/q_reg:CLK 159.339
R238 oDFF_8/q_reg:CLK DFF_2/q_reg:CLK 232.586
R239 DFF_2/q_reg:CLK clk__L2_N2:81 891.579
R240 DFF_2/q_reg:CLK clk__L2_N2:89 57.8468
R241 DFF_8/q_reg:CLK iDFF_8/q_reg:CLK 200.295
R242 oDFF_8/q_reg:CLK iDFF_8/q_reg:CLK 292.369
R243 iDFF_8/q_reg:CLK clk__L2_N2:81 1120.75
R244 iDFF_8/q_reg:CLK clk__L2_N2:89 52.2872
R245 iDFF_14/q_reg:CLK clk__L2_N2:52 24.6
R246 DFF_15/q_reg:CLK clk__L2_N2:52 6.73333
R247 oDFF_15/q_reg:CLK DFF_11/q_reg:CLK 285.699
R248 oDFF_15/q_reg:CLK clk__L2_N2:89 2646.8
R249 oDFF_15/q_reg:CLK iDFF_16/q_reg:CLK 0.8
R250 oDFF_11/q_reg:CLK iDFF_11/q_reg:CLK 1.06667
R251 DFF_11/q_reg:CLK clk__L2_N2:89 126.19
R252 oDFF_3/q_reg:CLK iDFF_15/q_reg:CLK 1.06667
R253 iDFF_2/q_reg:CLK clk__L2_N2:75 13.1333
R254 oDFF_7/q_reg:CLK clk__L2_N2:89 52.3398
R255 oDFF_7/q_reg:CLK iDFF_3/q_reg:CLK 0.8
R256 oDFF_8/q_reg:CLK DFF_8/q_reg:CLK 19.5169
R257 DFF_8/q_reg:CLK clk__L2_N2:81 74.8149
R258 DFF_8/q_reg:CLK clk__L2_N2:89 222.509
R259 oDFF_8/q_reg:CLK clk__L2_N2:81 51.7125
R260 oDFF_8/q_reg:CLK clk__L2_N2:89 324.794
R261 iDFF_4/q_reg:CLK iDFF_1/q_reg:CLK 0.666667