********** Glitched induced version of LIBRARY : osu018_stdcells_correct_vdd_gnd.sp **********



******************************* ORIGINAL SUBCIRCUIT : AND2X1 ******************************* 

.subckt AND2X1 A B 0 Y vdd
*corrected
**Vvdd vdd 0 1.8

M0 a_2_6# A vdd vdd pfet w=2u l=0.2u
+ ad=0p pd=0u as=0p ps=0u 
M1 vdd B a_2_6# vdd pfet w=2u l=0.2u
+ ad=0p pd=0u as=0p ps=0u 
M2 Y a_2_6# vdd vdd pfet w=2u l=0.2u
+ ad=0p pd=0u as=0p ps=0u 
M3 a_9_6# A a_2_6# 0 nfet w=2u l=0.2u
+ ad=0p pd=0u as=0p ps=0u 
M4 0 B a_9_6# 0 nfet w=2u l=0.2u
+ ad=0p pd=0u as=0p ps=0u 
M5 Y a_2_6# 0 0 nfet w=1u l=0.2u
+ ad=0p pd=0u as=0p ps=0u 
.ends AND2X1

****** AND2X1 : Glitched version 1 : glitch at a_2_6# ******

.subckt AND2X1_1 A B 0 Y vdd
Icharge 0 a_2_6# EXP (0 current_magnitude rise_delay rise_time_constant fall_delay fall_time_constant)
*corrected
**Vvdd vdd 0 1.8

M0 a_2_6# A vdd vdd pfet w=2u l=0.2u
+ ad=0p pd=0u as=0p ps=0u 
M1 vdd B a_2_6# vdd pfet w=2u l=0.2u
+ ad=0p pd=0u as=0p ps=0u 
M2 Y a_2_6# vdd vdd pfet w=2u l=0.2u
+ ad=0p pd=0u as=0p ps=0u 
M3 a_9_6# A a_2_6# 0 nfet w=2u l=0.2u
+ ad=0p pd=0u as=0p ps=0u 
M4 0 B a_9_6# 0 nfet w=2u l=0.2u
+ ad=0p pd=0u as=0p ps=0u 
M5 Y a_2_6# 0 0 nfet w=1u l=0.2u
+ ad=0p pd=0u as=0p ps=0u 
.ends AND2X1_1

****** AND2X1 : Glitched version 2 : glitch at Y ******

.subckt AND2X1_2 A B 0 Y vdd
Icharge 0 Y EXP (0 current_magnitude rise_delay rise_time_constant fall_delay fall_time_constant)
*corrected
**Vvdd vdd 0 1.8

M0 a_2_6# A vdd vdd pfet w=2u l=0.2u
+ ad=0p pd=0u as=0p ps=0u 
M1 vdd B a_2_6# vdd pfet w=2u l=0.2u
+ ad=0p pd=0u as=0p ps=0u 
M2 Y a_2_6# vdd vdd pfet w=2u l=0.2u
+ ad=0p pd=0u as=0p ps=0u 
M3 a_9_6# A a_2_6# 0 nfet w=2u l=0.2u
+ ad=0p pd=0u as=0p ps=0u 
M4 0 B a_9_6# 0 nfet w=2u l=0.2u
+ ad=0p pd=0u as=0p ps=0u 
M5 Y a_2_6# 0 0 nfet w=1u l=0.2u
+ ad=0p pd=0u as=0p ps=0u 
.ends AND2X1_2

****** AND2X1 : Glitched version 3 : glitch at a_9_6# ******

.subckt AND2X1_3 A B 0 Y vdd
Icharge 0 a_9_6# EXP (0 current_magnitude rise_delay rise_time_constant fall_delay fall_time_constant)
*corrected
**Vvdd vdd 0 1.8

M0 a_2_6# A vdd vdd pfet w=2u l=0.2u
+ ad=0p pd=0u as=0p ps=0u 
M1 vdd B a_2_6# vdd pfet w=2u l=0.2u
+ ad=0p pd=0u as=0p ps=0u 
M2 Y a_2_6# vdd vdd pfet w=2u l=0.2u
+ ad=0p pd=0u as=0p ps=0u 
M3 a_9_6# A a_2_6# 0 nfet w=2u l=0.2u
+ ad=0p pd=0u as=0p ps=0u 
M4 0 B a_9_6# 0 nfet w=2u l=0.2u
+ ad=0p pd=0u as=0p ps=0u 
M5 Y a_2_6# 0 0 nfet w=1u l=0.2u
+ ad=0p pd=0u as=0p ps=0u 
.ends AND2X1_3


******************************* ORIGINAL SUBCIRCUIT : AND2X2 ******************************* 

.subckt AND2X2  A B 0 Y vdd

*Vvdd vdd 0 1.8
*V0 0 0 0

M0 a_2_6# A vdd vdd pfet w=2u l=0.2u
+ ad=0p pd=0u as=0p ps=0u 
M1 vdd B a_2_6# vdd pfet w=2u l=0.2u
+ ad=0p pd=0u as=0p ps=0u 
M2 Y a_2_6# vdd vdd pfet w=4u l=0.2u
+ ad=0p pd=0u as=0p ps=0u 
M3 a_9_6# A a_2_6# 0 nfet w=2u l=0.2u
+ ad=0p pd=0u as=0p ps=0u 
M4 0 B a_9_6# 0 nfet w=2u l=0.2u
+ ad=0p pd=0u as=0p ps=0u 
M5 Y a_2_6# 0 0 nfet w=2u l=0.2u
+ ad=0p pd=0u as=0p ps=0u 
.ends AND2X2

****** AND2X2 : Glitched version 1 : glitch at a_2_6# ******

.subckt AND2X2_1  A B 0 Y vdd
Icharge 0 a_2_6# EXP (0 current_magnitude rise_delay rise_time_constant fall_delay fall_time_constant)

*Vvdd vdd 0 1.8
*V0 0 0 0

M0 a_2_6# A vdd vdd pfet w=2u l=0.2u
+ ad=0p pd=0u as=0p ps=0u 
M1 vdd B a_2_6# vdd pfet w=2u l=0.2u
+ ad=0p pd=0u as=0p ps=0u 
M2 Y a_2_6# vdd vdd pfet w=4u l=0.2u
+ ad=0p pd=0u as=0p ps=0u 
M3 a_9_6# A a_2_6# 0 nfet w=2u l=0.2u
+ ad=0p pd=0u as=0p ps=0u 
M4 0 B a_9_6# 0 nfet w=2u l=0.2u
+ ad=0p pd=0u as=0p ps=0u 
M5 Y a_2_6# 0 0 nfet w=2u l=0.2u
+ ad=0p pd=0u as=0p ps=0u 
.ends AND2X2_1

****** AND2X2 : Glitched version 2 : glitch at Y ******

.subckt AND2X2_2  A B 0 Y vdd
Icharge 0 Y EXP (0 current_magnitude rise_delay rise_time_constant fall_delay fall_time_constant)

*Vvdd vdd 0 1.8
*V0 0 0 0

M0 a_2_6# A vdd vdd pfet w=2u l=0.2u
+ ad=0p pd=0u as=0p ps=0u 
M1 vdd B a_2_6# vdd pfet w=2u l=0.2u
+ ad=0p pd=0u as=0p ps=0u 
M2 Y a_2_6# vdd vdd pfet w=4u l=0.2u
+ ad=0p pd=0u as=0p ps=0u 
M3 a_9_6# A a_2_6# 0 nfet w=2u l=0.2u
+ ad=0p pd=0u as=0p ps=0u 
M4 0 B a_9_6# 0 nfet w=2u l=0.2u
+ ad=0p pd=0u as=0p ps=0u 
M5 Y a_2_6# 0 0 nfet w=2u l=0.2u
+ ad=0p pd=0u as=0p ps=0u 
.ends AND2X2_2

****** AND2X2 : Glitched version 3 : glitch at a_9_6# ******

.subckt AND2X2_3  A B 0 Y vdd
Icharge 0 a_9_6# EXP (0 current_magnitude rise_delay rise_time_constant fall_delay fall_time_constant)

*Vvdd vdd 0 1.8
*V0 0 0 0

M0 a_2_6# A vdd vdd pfet w=2u l=0.2u
+ ad=0p pd=0u as=0p ps=0u 
M1 vdd B a_2_6# vdd pfet w=2u l=0.2u
+ ad=0p pd=0u as=0p ps=0u 
M2 Y a_2_6# vdd vdd pfet w=4u l=0.2u
+ ad=0p pd=0u as=0p ps=0u 
M3 a_9_6# A a_2_6# 0 nfet w=2u l=0.2u
+ ad=0p pd=0u as=0p ps=0u 
M4 0 B a_9_6# 0 nfet w=2u l=0.2u
+ ad=0p pd=0u as=0p ps=0u 
M5 Y a_2_6# 0 0 nfet w=2u l=0.2u
+ ad=0p pd=0u as=0p ps=0u 
.ends AND2X2_3


******************************* ORIGINAL SUBCIRCUIT : AOI21X1 ******************************* 

.subckt AOI21X1 A B C 0 Y vdd
M0 vdd A a_2_54# vdd pfet w=4u l=0.2u
+ ad=0p pd=0u as=0p ps=0u 
M1 a_2_54# B vdd vdd pfet w=4u l=0.2u
+ ad=0p pd=0u as=0p ps=0u 
M2 Y C a_2_54# vdd pfet w=4u l=0.2u
+ ad=0p pd=0u as=0p ps=0u 
M3 a_12_6# A 0 0 nfet w=2u l=0.2u
+ ad=0p pd=0u as=0p ps=0u 
M4 Y B a_12_6# 0 nfet w=2u l=0.2u
+ ad=0p pd=0u as=0p ps=0u 
M5 0 C Y 0 nfet w=1u l=0.2u
+ ad=0p pd=0u as=0p ps=0u 
.ends AOI21X1

****** AOI21X1 : Glitched version 1 : glitch at a_2_54# ******

.subckt AOI21X1_1 A B C 0 Y vdd
Icharge 0 a_2_54# EXP (0 current_magnitude rise_delay rise_time_constant fall_delay fall_time_constant)
M0 vdd A a_2_54# vdd pfet w=4u l=0.2u
+ ad=0p pd=0u as=0p ps=0u 
M1 a_2_54# B vdd vdd pfet w=4u l=0.2u
+ ad=0p pd=0u as=0p ps=0u 
M2 Y C a_2_54# vdd pfet w=4u l=0.2u
+ ad=0p pd=0u as=0p ps=0u 
M3 a_12_6# A 0 0 nfet w=2u l=0.2u
+ ad=0p pd=0u as=0p ps=0u 
M4 Y B a_12_6# 0 nfet w=2u l=0.2u
+ ad=0p pd=0u as=0p ps=0u 
M5 0 C Y 0 nfet w=1u l=0.2u
+ ad=0p pd=0u as=0p ps=0u 
.ends AOI21X1_1

****** AOI21X1 : Glitched version 2 : glitch at Y ******

.subckt AOI21X1_2 A B C 0 Y vdd
Icharge 0 Y EXP (0 current_magnitude rise_delay rise_time_constant fall_delay fall_time_constant)
M0 vdd A a_2_54# vdd pfet w=4u l=0.2u
+ ad=0p pd=0u as=0p ps=0u 
M1 a_2_54# B vdd vdd pfet w=4u l=0.2u
+ ad=0p pd=0u as=0p ps=0u 
M2 Y C a_2_54# vdd pfet w=4u l=0.2u
+ ad=0p pd=0u as=0p ps=0u 
M3 a_12_6# A 0 0 nfet w=2u l=0.2u
+ ad=0p pd=0u as=0p ps=0u 
M4 Y B a_12_6# 0 nfet w=2u l=0.2u
+ ad=0p pd=0u as=0p ps=0u 
M5 0 C Y 0 nfet w=1u l=0.2u
+ ad=0p pd=0u as=0p ps=0u 
.ends AOI21X1_2

****** AOI21X1 : Glitched version 3 : glitch at a_12_6# ******

.subckt AOI21X1_3 A B C 0 Y vdd
Icharge 0 a_12_6# EXP (0 current_magnitude rise_delay rise_time_constant fall_delay fall_time_constant)
M0 vdd A a_2_54# vdd pfet w=4u l=0.2u
+ ad=0p pd=0u as=0p ps=0u 
M1 a_2_54# B vdd vdd pfet w=4u l=0.2u
+ ad=0p pd=0u as=0p ps=0u 
M2 Y C a_2_54# vdd pfet w=4u l=0.2u
+ ad=0p pd=0u as=0p ps=0u 
M3 a_12_6# A 0 0 nfet w=2u l=0.2u
+ ad=0p pd=0u as=0p ps=0u 
M4 Y B a_12_6# 0 nfet w=2u l=0.2u
+ ad=0p pd=0u as=0p ps=0u 
M5 0 C Y 0 nfet w=1u l=0.2u
+ ad=0p pd=0u as=0p ps=0u 
.ends AOI21X1_3


******************************* ORIGINAL SUBCIRCUIT : AOI22X1 ******************************* 

.subckt AOI22X1 A B C D 0 Y vdd
*corrected

M0 vdd A a_2_54# vdd pfet w=4u l=0.2u
+ ad=0p pd=0u as=0p ps=0u 
M1 a_2_54# B vdd vdd pfet w=4u l=0.2u
+ ad=0p pd=0u as=0p ps=0u 
M2 Y D a_2_54# vdd pfet w=4u l=0.2u
+ ad=0p pd=0u as=0p ps=0u 
M3 a_2_54# C Y vdd pfet w=4u l=0.2u
+ ad=0p pd=0u as=0p ps=0u 
M4 a_11_6# A 0 0 nfet w=2u l=0.2u
+ ad=0p pd=0u as=0p ps=0u 
M5 Y B a_11_6# 0 nfet w=2u l=0.2u
+ ad=0p pd=0u as=0p ps=0u 
M6 a_28_6# D Y 0 nfet w=2u l=0.2u
+ ad=0p pd=0u as=0p ps=0u 
M7 0 C a_28_6# 0 nfet w=2u l=0.2u
+ ad=0p pd=0u as=0p ps=0u 
.ends AOI22X1

****** AOI22X1 : Glitched version 1 : glitch at a_2_54# ******

.subckt AOI22X1_1 A B C D 0 Y vdd
Icharge 0 a_2_54# EXP (0 current_magnitude rise_delay rise_time_constant fall_delay fall_time_constant)
*corrected

M0 vdd A a_2_54# vdd pfet w=4u l=0.2u
+ ad=0p pd=0u as=0p ps=0u 
M1 a_2_54# B vdd vdd pfet w=4u l=0.2u
+ ad=0p pd=0u as=0p ps=0u 
M2 Y D a_2_54# vdd pfet w=4u l=0.2u
+ ad=0p pd=0u as=0p ps=0u 
M3 a_2_54# C Y vdd pfet w=4u l=0.2u
+ ad=0p pd=0u as=0p ps=0u 
M4 a_11_6# A 0 0 nfet w=2u l=0.2u
+ ad=0p pd=0u as=0p ps=0u 
M5 Y B a_11_6# 0 nfet w=2u l=0.2u
+ ad=0p pd=0u as=0p ps=0u 
M6 a_28_6# D Y 0 nfet w=2u l=0.2u
+ ad=0p pd=0u as=0p ps=0u 
M7 0 C a_28_6# 0 nfet w=2u l=0.2u
+ ad=0p pd=0u as=0p ps=0u 
.ends AOI22X1_1

****** AOI22X1 : Glitched version 2 : glitch at Y ******

.subckt AOI22X1_2 A B C D 0 Y vdd
Icharge 0 Y EXP (0 current_magnitude rise_delay rise_time_constant fall_delay fall_time_constant)
*corrected

M0 vdd A a_2_54# vdd pfet w=4u l=0.2u
+ ad=0p pd=0u as=0p ps=0u 
M1 a_2_54# B vdd vdd pfet w=4u l=0.2u
+ ad=0p pd=0u as=0p ps=0u 
M2 Y D a_2_54# vdd pfet w=4u l=0.2u
+ ad=0p pd=0u as=0p ps=0u 
M3 a_2_54# C Y vdd pfet w=4u l=0.2u
+ ad=0p pd=0u as=0p ps=0u 
M4 a_11_6# A 0 0 nfet w=2u l=0.2u
+ ad=0p pd=0u as=0p ps=0u 
M5 Y B a_11_6# 0 nfet w=2u l=0.2u
+ ad=0p pd=0u as=0p ps=0u 
M6 a_28_6# D Y 0 nfet w=2u l=0.2u
+ ad=0p pd=0u as=0p ps=0u 
M7 0 C a_28_6# 0 nfet w=2u l=0.2u
+ ad=0p pd=0u as=0p ps=0u 
.ends AOI22X1_2

****** AOI22X1 : Glitched version 3 : glitch at a_11_6# ******

.subckt AOI22X1_3 A B C D 0 Y vdd
Icharge 0 a_11_6# EXP (0 current_magnitude rise_delay rise_time_constant fall_delay fall_time_constant)
*corrected

M0 vdd A a_2_54# vdd pfet w=4u l=0.2u
+ ad=0p pd=0u as=0p ps=0u 
M1 a_2_54# B vdd vdd pfet w=4u l=0.2u
+ ad=0p pd=0u as=0p ps=0u 
M2 Y D a_2_54# vdd pfet w=4u l=0.2u
+ ad=0p pd=0u as=0p ps=0u 
M3 a_2_54# C Y vdd pfet w=4u l=0.2u
+ ad=0p pd=0u as=0p ps=0u 
M4 a_11_6# A 0 0 nfet w=2u l=0.2u
+ ad=0p pd=0u as=0p ps=0u 
M5 Y B a_11_6# 0 nfet w=2u l=0.2u
+ ad=0p pd=0u as=0p ps=0u 
M6 a_28_6# D Y 0 nfet w=2u l=0.2u
+ ad=0p pd=0u as=0p ps=0u 
M7 0 C a_28_6# 0 nfet w=2u l=0.2u
+ ad=0p pd=0u as=0p ps=0u 
.ends AOI22X1_3

****** AOI22X1 : Glitched version 4 : glitch at a_28_6# ******

.subckt AOI22X1_4 A B C D 0 Y vdd
Icharge 0 a_28_6# EXP (0 current_magnitude rise_delay rise_time_constant fall_delay fall_time_constant)
*corrected

M0 vdd A a_2_54# vdd pfet w=4u l=0.2u
+ ad=0p pd=0u as=0p ps=0u 
M1 a_2_54# B vdd vdd pfet w=4u l=0.2u
+ ad=0p pd=0u as=0p ps=0u 
M2 Y D a_2_54# vdd pfet w=4u l=0.2u
+ ad=0p pd=0u as=0p ps=0u 
M3 a_2_54# C Y vdd pfet w=4u l=0.2u
+ ad=0p pd=0u as=0p ps=0u 
M4 a_11_6# A 0 0 nfet w=2u l=0.2u
+ ad=0p pd=0u as=0p ps=0u 
M5 Y B a_11_6# 0 nfet w=2u l=0.2u
+ ad=0p pd=0u as=0p ps=0u 
M6 a_28_6# D Y 0 nfet w=2u l=0.2u
+ ad=0p pd=0u as=0p ps=0u 
M7 0 C a_28_6# 0 nfet w=2u l=0.2u
+ ad=0p pd=0u as=0p ps=0u 
.ends AOI22X1_4


******************************* ORIGINAL SUBCIRCUIT : BUFX2 ******************************* 

.subckt BUFX2 A 0 Y vdd

*Vvdd vdd 0 1.8
*V0 0 0 0


M0 vdd A a_2_6# vdd pfet w=2u l=0.2u
+ ad=0p pd=0u as=0p ps=0u 
M1 Y a_2_6# vdd vdd pfet w=4u l=0.2u
+ ad=0p pd=0u as=0p ps=0u 
M2 0 A a_2_6# 0 nfet w=1u l=0.2u
+ ad=0p pd=0u as=0p ps=0u 
M3 Y a_2_6# 0 0 nfet w=2u l=0.2u
+ ad=0p pd=0u as=0p ps=0u 
.ends BUFX2

****** BUFX2 : Glitched version 1 : glitch at Y ******

.subckt BUFX2_1 A 0 Y vdd
Icharge 0 Y EXP (0 current_magnitude rise_delay rise_time_constant fall_delay fall_time_constant)

*Vvdd vdd 0 1.8
*V0 0 0 0


M0 vdd A a_2_6# vdd pfet w=2u l=0.2u
+ ad=0p pd=0u as=0p ps=0u 
M1 Y a_2_6# vdd vdd pfet w=4u l=0.2u
+ ad=0p pd=0u as=0p ps=0u 
M2 0 A a_2_6# 0 nfet w=1u l=0.2u
+ ad=0p pd=0u as=0p ps=0u 
M3 Y a_2_6# 0 0 nfet w=2u l=0.2u
+ ad=0p pd=0u as=0p ps=0u 
.ends BUFX2_1


******************************* ORIGINAL SUBCIRCUIT : BUFX4 ******************************* 

.subckt BUFX4 A 0 Y vdd

*Vvdd vdd 0 1.8
*V0 0 0 0


M0 vdd A a_2_6# vdd pfet w=3u l=0.2u
+ ad=0p pd=0u as=0p ps=0u 
M1 Y a_2_6# vdd vdd pfet w=4u l=0.2u
+ ad=0p pd=0u as=0p ps=0u 
M2 vdd a_2_6# Y vdd pfet w=4u l=0.2u
+ ad=0p pd=0u as=0p ps=0u 
M3 0 A a_2_6# 0 nfet w=1.5u l=0.2u
+ ad=0p pd=0u as=0p ps=0u 
M4 Y a_2_6# 0 0 nfet w=2u l=0.2u
+ ad=0p pd=0u as=0p ps=0u 
M5 0 a_2_6# Y 0 nfet w=2u l=0.2u
+ ad=0p pd=0u as=0p ps=0u 
.ends BUFX4

****** BUFX4 : Glitched version 1 : glitch at Y ******

.subckt BUFX4_1 A 0 Y vdd
Icharge 0 Y EXP (0 current_magnitude rise_delay rise_time_constant fall_delay fall_time_constant)

*Vvdd vdd 0 1.8
*V0 0 0 0


M0 vdd A a_2_6# vdd pfet w=3u l=0.2u
+ ad=0p pd=0u as=0p ps=0u 
M1 Y a_2_6# vdd vdd pfet w=4u l=0.2u
+ ad=0p pd=0u as=0p ps=0u 
M2 vdd a_2_6# Y vdd pfet w=4u l=0.2u
+ ad=0p pd=0u as=0p ps=0u 
M3 0 A a_2_6# 0 nfet w=1.5u l=0.2u
+ ad=0p pd=0u as=0p ps=0u 
M4 Y a_2_6# 0 0 nfet w=2u l=0.2u
+ ad=0p pd=0u as=0p ps=0u 
M5 0 a_2_6# Y 0 nfet w=2u l=0.2u
+ ad=0p pd=0u as=0p ps=0u 
.ends BUFX4_1


******************************* ORIGINAL SUBCIRCUIT : CLKBUF1 ******************************* 

.subckt CLKBUF1 A 0 Y vdd

*Vvdd vdd 0 1.8
*V0 0 0 0


M0 a_9_6# A vdd vdd pfet w=4u l=0.2u
+ ad=0p pd=0u as=0p ps=0u 
M1 vdd A a_9_6# vdd pfet w=4u l=0.2u
+ ad=0p pd=0u as=0p ps=0u 
M2 a_25_6# a_9_6# vdd vdd pfet w=4u l=0.2u
+ ad=0p pd=0u as=0p ps=0u 
M3 vdd a_9_6# a_25_6# vdd pfet w=4u l=0.2u
+ ad=0p pd=0u as=0p ps=0u 
M4 a_41_6# a_25_6# vdd vdd pfet w=4u l=0.2u
+ ad=0p pd=0u as=0p ps=0u 
M5 vdd a_25_6# a_41_6# vdd pfet w=4u l=0.2u
+ ad=0p pd=0u as=0p ps=0u 
M6 Y a_41_6# vdd vdd pfet w=4u l=0.2u
+ ad=0p pd=0u as=0p ps=0u 
M7 vdd a_41_6# Y vdd pfet w=4u l=0.2u
+ ad=0p pd=0u as=0p ps=0u 
M8 a_9_6# A 0 0 nfet w=2u l=0.2u
+ ad=0p pd=0u as=0p ps=0u 
M9 0 A a_9_6# 0 nfet w=2u l=0.2u
+ ad=0p pd=0u as=0p ps=0u 
M10 a_25_6# a_9_6# 0 0 nfet w=2u l=0.2u
+ ad=0p pd=0u as=0p ps=0u 
M11 0 a_9_6# a_25_6# 0 nfet w=2u l=0.2u
+ ad=0p pd=0u as=0p ps=0u 
M12 a_41_6# a_25_6# 0 0 nfet w=2u l=0.2u
+ ad=0p pd=0u as=0p ps=0u 
M13 0 a_25_6# a_41_6# 0 nfet w=2u l=0.2u
+ ad=0p pd=0u as=0p ps=0u 
M14 Y a_41_6# 0 0 nfet w=2u l=0.2u
+ ad=0p pd=0u as=0p ps=0u 
M15 0 a_41_6# Y 0 nfet w=2u l=0.2u
+ ad=0p pd=0u as=0p ps=0u 
.ends CLKBUF1

****** CLKBUF1 : Glitched version 1 : glitch at a_9_6# ******

.subckt CLKBUF1_1 A 0 Y vdd
Icharge 0 a_9_6# EXP (0 current_magnitude rise_delay rise_time_constant fall_delay fall_time_constant)

*Vvdd vdd 0 1.8
*V0 0 0 0


M0 a_9_6# A vdd vdd pfet w=4u l=0.2u
+ ad=0p pd=0u as=0p ps=0u 
M1 vdd A a_9_6# vdd pfet w=4u l=0.2u
+ ad=0p pd=0u as=0p ps=0u 
M2 a_25_6# a_9_6# vdd vdd pfet w=4u l=0.2u
+ ad=0p pd=0u as=0p ps=0u 
M3 vdd a_9_6# a_25_6# vdd pfet w=4u l=0.2u
+ ad=0p pd=0u as=0p ps=0u 
M4 a_41_6# a_25_6# vdd vdd pfet w=4u l=0.2u
+ ad=0p pd=0u as=0p ps=0u 
M5 vdd a_25_6# a_41_6# vdd pfet w=4u l=0.2u
+ ad=0p pd=0u as=0p ps=0u 
M6 Y a_41_6# vdd vdd pfet w=4u l=0.2u
+ ad=0p pd=0u as=0p ps=0u 
M7 vdd a_41_6# Y vdd pfet w=4u l=0.2u
+ ad=0p pd=0u as=0p ps=0u 
M8 a_9_6# A 0 0 nfet w=2u l=0.2u
+ ad=0p pd=0u as=0p ps=0u 
M9 0 A a_9_6# 0 nfet w=2u l=0.2u
+ ad=0p pd=0u as=0p ps=0u 
M10 a_25_6# a_9_6# 0 0 nfet w=2u l=0.2u
+ ad=0p pd=0u as=0p ps=0u 
M11 0 a_9_6# a_25_6# 0 nfet w=2u l=0.2u
+ ad=0p pd=0u as=0p ps=0u 
M12 a_41_6# a_25_6# 0 0 nfet w=2u l=0.2u
+ ad=0p pd=0u as=0p ps=0u 
M13 0 a_25_6# a_41_6# 0 nfet w=2u l=0.2u
+ ad=0p pd=0u as=0p ps=0u 
M14 Y a_41_6# 0 0 nfet w=2u l=0.2u
+ ad=0p pd=0u as=0p ps=0u 
M15 0 a_41_6# Y 0 nfet w=2u l=0.2u
+ ad=0p pd=0u as=0p ps=0u 
.ends CLKBUF1_1

****** CLKBUF1 : Glitched version 2 : glitch at a_25_6# ******

.subckt CLKBUF1_2 A 0 Y vdd
Icharge 0 a_25_6# EXP (0 current_magnitude rise_delay rise_time_constant fall_delay fall_time_constant)

*Vvdd vdd 0 1.8
*V0 0 0 0


M0 a_9_6# A vdd vdd pfet w=4u l=0.2u
+ ad=0p pd=0u as=0p ps=0u 
M1 vdd A a_9_6# vdd pfet w=4u l=0.2u
+ ad=0p pd=0u as=0p ps=0u 
M2 a_25_6# a_9_6# vdd vdd pfet w=4u l=0.2u
+ ad=0p pd=0u as=0p ps=0u 
M3 vdd a_9_6# a_25_6# vdd pfet w=4u l=0.2u
+ ad=0p pd=0u as=0p ps=0u 
M4 a_41_6# a_25_6# vdd vdd pfet w=4u l=0.2u
+ ad=0p pd=0u as=0p ps=0u 
M5 vdd a_25_6# a_41_6# vdd pfet w=4u l=0.2u
+ ad=0p pd=0u as=0p ps=0u 
M6 Y a_41_6# vdd vdd pfet w=4u l=0.2u
+ ad=0p pd=0u as=0p ps=0u 
M7 vdd a_41_6# Y vdd pfet w=4u l=0.2u
+ ad=0p pd=0u as=0p ps=0u 
M8 a_9_6# A 0 0 nfet w=2u l=0.2u
+ ad=0p pd=0u as=0p ps=0u 
M9 0 A a_9_6# 0 nfet w=2u l=0.2u
+ ad=0p pd=0u as=0p ps=0u 
M10 a_25_6# a_9_6# 0 0 nfet w=2u l=0.2u
+ ad=0p pd=0u as=0p ps=0u 
M11 0 a_9_6# a_25_6# 0 nfet w=2u l=0.2u
+ ad=0p pd=0u as=0p ps=0u 
M12 a_41_6# a_25_6# 0 0 nfet w=2u l=0.2u
+ ad=0p pd=0u as=0p ps=0u 
M13 0 a_25_6# a_41_6# 0 nfet w=2u l=0.2u
+ ad=0p pd=0u as=0p ps=0u 
M14 Y a_41_6# 0 0 nfet w=2u l=0.2u
+ ad=0p pd=0u as=0p ps=0u 
M15 0 a_41_6# Y 0 nfet w=2u l=0.2u
+ ad=0p pd=0u as=0p ps=0u 
.ends CLKBUF1_2

****** CLKBUF1 : Glitched version 3 : glitch at a_41_6# ******

.subckt CLKBUF1_3 A 0 Y vdd
Icharge 0 a_41_6# EXP (0 current_magnitude rise_delay rise_time_constant fall_delay fall_time_constant)

*Vvdd vdd 0 1.8
*V0 0 0 0


M0 a_9_6# A vdd vdd pfet w=4u l=0.2u
+ ad=0p pd=0u as=0p ps=0u 
M1 vdd A a_9_6# vdd pfet w=4u l=0.2u
+ ad=0p pd=0u as=0p ps=0u 
M2 a_25_6# a_9_6# vdd vdd pfet w=4u l=0.2u
+ ad=0p pd=0u as=0p ps=0u 
M3 vdd a_9_6# a_25_6# vdd pfet w=4u l=0.2u
+ ad=0p pd=0u as=0p ps=0u 
M4 a_41_6# a_25_6# vdd vdd pfet w=4u l=0.2u
+ ad=0p pd=0u as=0p ps=0u 
M5 vdd a_25_6# a_41_6# vdd pfet w=4u l=0.2u
+ ad=0p pd=0u as=0p ps=0u 
M6 Y a_41_6# vdd vdd pfet w=4u l=0.2u
+ ad=0p pd=0u as=0p ps=0u 
M7 vdd a_41_6# Y vdd pfet w=4u l=0.2u
+ ad=0p pd=0u as=0p ps=0u 
M8 a_9_6# A 0 0 nfet w=2u l=0.2u
+ ad=0p pd=0u as=0p ps=0u 
M9 0 A a_9_6# 0 nfet w=2u l=0.2u
+ ad=0p pd=0u as=0p ps=0u 
M10 a_25_6# a_9_6# 0 0 nfet w=2u l=0.2u
+ ad=0p pd=0u as=0p ps=0u 
M11 0 a_9_6# a_25_6# 0 nfet w=2u l=0.2u
+ ad=0p pd=0u as=0p ps=0u 
M12 a_41_6# a_25_6# 0 0 nfet w=2u l=0.2u
+ ad=0p pd=0u as=0p ps=0u 
M13 0 a_25_6# a_41_6# 0 nfet w=2u l=0.2u
+ ad=0p pd=0u as=0p ps=0u 
M14 Y a_41_6# 0 0 nfet w=2u l=0.2u
+ ad=0p pd=0u as=0p ps=0u 
M15 0 a_41_6# Y 0 nfet w=2u l=0.2u
+ ad=0p pd=0u as=0p ps=0u 
.ends CLKBUF1_3

****** CLKBUF1 : Glitched version 4 : glitch at Y ******

.subckt CLKBUF1_4 A 0 Y vdd
Icharge 0 Y EXP (0 current_magnitude rise_delay rise_time_constant fall_delay fall_time_constant)

*Vvdd vdd 0 1.8
*V0 0 0 0


M0 a_9_6# A vdd vdd pfet w=4u l=0.2u
+ ad=0p pd=0u as=0p ps=0u 
M1 vdd A a_9_6# vdd pfet w=4u l=0.2u
+ ad=0p pd=0u as=0p ps=0u 
M2 a_25_6# a_9_6# vdd vdd pfet w=4u l=0.2u
+ ad=0p pd=0u as=0p ps=0u 
M3 vdd a_9_6# a_25_6# vdd pfet w=4u l=0.2u
+ ad=0p pd=0u as=0p ps=0u 
M4 a_41_6# a_25_6# vdd vdd pfet w=4u l=0.2u
+ ad=0p pd=0u as=0p ps=0u 
M5 vdd a_25_6# a_41_6# vdd pfet w=4u l=0.2u
+ ad=0p pd=0u as=0p ps=0u 
M6 Y a_41_6# vdd vdd pfet w=4u l=0.2u
+ ad=0p pd=0u as=0p ps=0u 
M7 vdd a_41_6# Y vdd pfet w=4u l=0.2u
+ ad=0p pd=0u as=0p ps=0u 
M8 a_9_6# A 0 0 nfet w=2u l=0.2u
+ ad=0p pd=0u as=0p ps=0u 
M9 0 A a_9_6# 0 nfet w=2u l=0.2u
+ ad=0p pd=0u as=0p ps=0u 
M10 a_25_6# a_9_6# 0 0 nfet w=2u l=0.2u
+ ad=0p pd=0u as=0p ps=0u 
M11 0 a_9_6# a_25_6# 0 nfet w=2u l=0.2u
+ ad=0p pd=0u as=0p ps=0u 
M12 a_41_6# a_25_6# 0 0 nfet w=2u l=0.2u
+ ad=0p pd=0u as=0p ps=0u 
M13 0 a_25_6# a_41_6# 0 nfet w=2u l=0.2u
+ ad=0p pd=0u as=0p ps=0u 
M14 Y a_41_6# 0 0 nfet w=2u l=0.2u
+ ad=0p pd=0u as=0p ps=0u 
M15 0 a_41_6# Y 0 nfet w=2u l=0.2u
+ ad=0p pd=0u as=0p ps=0u 
.ends CLKBUF1_4


******************************* ORIGINAL SUBCIRCUIT : CLKBUF2 ******************************* 

.subckt CLKBUF2 vdd 0 A Y
M0 a_9_6# A vdd vdd pfet w=4u l=0.2u
+ ad=0p pd=0u as=0p ps=0u 
M1 vdd A a_9_6# vdd pfet w=4u l=0.2u
+ ad=0p pd=0u as=0p ps=0u 
M2 a_25_6# a_9_6# vdd vdd pfet w=4u l=0.2u
+ ad=0p pd=0u as=0p ps=0u 
M3 vdd a_9_6# a_25_6# vdd pfet w=4u l=0.2u
+ ad=0p pd=0u as=0p ps=0u 
M4 a_41_6# a_25_6# vdd vdd pfet w=4u l=0.2u
+ ad=0p pd=0u as=0p ps=0u 
M5 vdd a_25_6# a_41_6# vdd pfet w=4u l=0.2u
+ ad=0p pd=0u as=0p ps=0u 
M6 a_57_6# a_41_6# vdd vdd pfet w=4u l=0.2u
+ ad=0p pd=0u as=0p ps=0u 
M7 vdd a_41_6# a_57_6# vdd pfet w=4u l=0.2u
+ ad=0p pd=0u as=0p ps=0u 
M8 a_73_6# a_57_6# vdd vdd pfet w=4u l=0.2u
+ ad=0p pd=0u as=0p ps=0u 
M9 vdd a_57_6# a_73_6# vdd pfet w=4u l=0.2u
+ ad=0p pd=0u as=0p ps=0u 
M10 Y a_73_6# vdd vdd pfet w=4u l=0.2u
+ ad=0p pd=0u as=0p ps=0u 
M11 vdd a_73_6# Y vdd pfet w=4u l=0.2u
+ ad=0p pd=0u as=0p ps=0u 
M12 a_9_6# A 0 0 nfet w=2u l=0.2u
+ ad=0p pd=0u as=0p ps=0u 
M13 0 A a_9_6# 0 nfet w=2u l=0.2u
+ ad=0p pd=0u as=0p ps=0u 
M14 a_25_6# a_9_6# 0 0 nfet w=2u l=0.2u
+ ad=0p pd=0u as=0p ps=0u 
M15 0 a_9_6# a_25_6# 0 nfet w=2u l=0.2u
+ ad=0p pd=0u as=0p ps=0u 
M16 a_41_6# a_25_6# 0 0 nfet w=2u l=0.2u
+ ad=0p pd=0u as=0p ps=0u 
M17 0 a_25_6# a_41_6# 0 nfet w=2u l=0.2u
+ ad=0p pd=0u as=0p ps=0u 
M18 a_57_6# a_41_6# 0 0 nfet w=2u l=0.2u
+ ad=0p pd=0u as=0p ps=0u 
M19 0 a_41_6# a_57_6# 0 nfet w=2u l=0.2u
+ ad=0p pd=0u as=0p ps=0u 
M20 a_73_6# a_57_6# 0 0 nfet w=2u l=0.2u
+ ad=0p pd=0u as=0p ps=0u 
M21 0 a_57_6# a_73_6# 0 nfet w=2u l=0.2u
+ ad=0p pd=0u as=0p ps=0u 
M22 Y a_73_6# 0 0 nfet w=2u l=0.2u
+ ad=0p pd=0u as=0p ps=0u 
M23 0 a_73_6# Y 0 nfet w=2u l=0.2u
+ ad=0p pd=0u as=0p ps=0u 
.ends CLKBUF2

****** CLKBUF2 : Glitched version 1 : glitch at a_9_6# ******

.subckt CLKBUF2_1 vdd 0 A Y
Icharge 0 a_9_6# EXP (0 current_magnitude rise_delay rise_time_constant fall_delay fall_time_constant)
M0 a_9_6# A vdd vdd pfet w=4u l=0.2u
+ ad=0p pd=0u as=0p ps=0u 
M1 vdd A a_9_6# vdd pfet w=4u l=0.2u
+ ad=0p pd=0u as=0p ps=0u 
M2 a_25_6# a_9_6# vdd vdd pfet w=4u l=0.2u
+ ad=0p pd=0u as=0p ps=0u 
M3 vdd a_9_6# a_25_6# vdd pfet w=4u l=0.2u
+ ad=0p pd=0u as=0p ps=0u 
M4 a_41_6# a_25_6# vdd vdd pfet w=4u l=0.2u
+ ad=0p pd=0u as=0p ps=0u 
M5 vdd a_25_6# a_41_6# vdd pfet w=4u l=0.2u
+ ad=0p pd=0u as=0p ps=0u 
M6 a_57_6# a_41_6# vdd vdd pfet w=4u l=0.2u
+ ad=0p pd=0u as=0p ps=0u 
M7 vdd a_41_6# a_57_6# vdd pfet w=4u l=0.2u
+ ad=0p pd=0u as=0p ps=0u 
M8 a_73_6# a_57_6# vdd vdd pfet w=4u l=0.2u
+ ad=0p pd=0u as=0p ps=0u 
M9 vdd a_57_6# a_73_6# vdd pfet w=4u l=0.2u
+ ad=0p pd=0u as=0p ps=0u 
M10 Y a_73_6# vdd vdd pfet w=4u l=0.2u
+ ad=0p pd=0u as=0p ps=0u 
M11 vdd a_73_6# Y vdd pfet w=4u l=0.2u
+ ad=0p pd=0u as=0p ps=0u 
M12 a_9_6# A 0 0 nfet w=2u l=0.2u
+ ad=0p pd=0u as=0p ps=0u 
M13 0 A a_9_6# 0 nfet w=2u l=0.2u
+ ad=0p pd=0u as=0p ps=0u 
M14 a_25_6# a_9_6# 0 0 nfet w=2u l=0.2u
+ ad=0p pd=0u as=0p ps=0u 
M15 0 a_9_6# a_25_6# 0 nfet w=2u l=0.2u
+ ad=0p pd=0u as=0p ps=0u 
M16 a_41_6# a_25_6# 0 0 nfet w=2u l=0.2u
+ ad=0p pd=0u as=0p ps=0u 
M17 0 a_25_6# a_41_6# 0 nfet w=2u l=0.2u
+ ad=0p pd=0u as=0p ps=0u 
M18 a_57_6# a_41_6# 0 0 nfet w=2u l=0.2u
+ ad=0p pd=0u as=0p ps=0u 
M19 0 a_41_6# a_57_6# 0 nfet w=2u l=0.2u
+ ad=0p pd=0u as=0p ps=0u 
M20 a_73_6# a_57_6# 0 0 nfet w=2u l=0.2u
+ ad=0p pd=0u as=0p ps=0u 
M21 0 a_57_6# a_73_6# 0 nfet w=2u l=0.2u
+ ad=0p pd=0u as=0p ps=0u 
M22 Y a_73_6# 0 0 nfet w=2u l=0.2u
+ ad=0p pd=0u as=0p ps=0u 
M23 0 a_73_6# Y 0 nfet w=2u l=0.2u
+ ad=0p pd=0u as=0p ps=0u 
.ends CLKBUF2_1

****** CLKBUF2 : Glitched version 2 : glitch at a_25_6# ******

.subckt CLKBUF2_2 vdd 0 A Y
Icharge 0 a_25_6# EXP (0 current_magnitude rise_delay rise_time_constant fall_delay fall_time_constant)
M0 a_9_6# A vdd vdd pfet w=4u l=0.2u
+ ad=0p pd=0u as=0p ps=0u 
M1 vdd A a_9_6# vdd pfet w=4u l=0.2u
+ ad=0p pd=0u as=0p ps=0u 
M2 a_25_6# a_9_6# vdd vdd pfet w=4u l=0.2u
+ ad=0p pd=0u as=0p ps=0u 
M3 vdd a_9_6# a_25_6# vdd pfet w=4u l=0.2u
+ ad=0p pd=0u as=0p ps=0u 
M4 a_41_6# a_25_6# vdd vdd pfet w=4u l=0.2u
+ ad=0p pd=0u as=0p ps=0u 
M5 vdd a_25_6# a_41_6# vdd pfet w=4u l=0.2u
+ ad=0p pd=0u as=0p ps=0u 
M6 a_57_6# a_41_6# vdd vdd pfet w=4u l=0.2u
+ ad=0p pd=0u as=0p ps=0u 
M7 vdd a_41_6# a_57_6# vdd pfet w=4u l=0.2u
+ ad=0p pd=0u as=0p ps=0u 
M8 a_73_6# a_57_6# vdd vdd pfet w=4u l=0.2u
+ ad=0p pd=0u as=0p ps=0u 
M9 vdd a_57_6# a_73_6# vdd pfet w=4u l=0.2u
+ ad=0p pd=0u as=0p ps=0u 
M10 Y a_73_6# vdd vdd pfet w=4u l=0.2u
+ ad=0p pd=0u as=0p ps=0u 
M11 vdd a_73_6# Y vdd pfet w=4u l=0.2u
+ ad=0p pd=0u as=0p ps=0u 
M12 a_9_6# A 0 0 nfet w=2u l=0.2u
+ ad=0p pd=0u as=0p ps=0u 
M13 0 A a_9_6# 0 nfet w=2u l=0.2u
+ ad=0p pd=0u as=0p ps=0u 
M14 a_25_6# a_9_6# 0 0 nfet w=2u l=0.2u
+ ad=0p pd=0u as=0p ps=0u 
M15 0 a_9_6# a_25_6# 0 nfet w=2u l=0.2u
+ ad=0p pd=0u as=0p ps=0u 
M16 a_41_6# a_25_6# 0 0 nfet w=2u l=0.2u
+ ad=0p pd=0u as=0p ps=0u 
M17 0 a_25_6# a_41_6# 0 nfet w=2u l=0.2u
+ ad=0p pd=0u as=0p ps=0u 
M18 a_57_6# a_41_6# 0 0 nfet w=2u l=0.2u
+ ad=0p pd=0u as=0p ps=0u 
M19 0 a_41_6# a_57_6# 0 nfet w=2u l=0.2u
+ ad=0p pd=0u as=0p ps=0u 
M20 a_73_6# a_57_6# 0 0 nfet w=2u l=0.2u
+ ad=0p pd=0u as=0p ps=0u 
M21 0 a_57_6# a_73_6# 0 nfet w=2u l=0.2u
+ ad=0p pd=0u as=0p ps=0u 
M22 Y a_73_6# 0 0 nfet w=2u l=0.2u
+ ad=0p pd=0u as=0p ps=0u 
M23 0 a_73_6# Y 0 nfet w=2u l=0.2u
+ ad=0p pd=0u as=0p ps=0u 
.ends CLKBUF2_2

****** CLKBUF2 : Glitched version 3 : glitch at a_41_6# ******

.subckt CLKBUF2_3 vdd 0 A Y
Icharge 0 a_41_6# EXP (0 current_magnitude rise_delay rise_time_constant fall_delay fall_time_constant)
M0 a_9_6# A vdd vdd pfet w=4u l=0.2u
+ ad=0p pd=0u as=0p ps=0u 
M1 vdd A a_9_6# vdd pfet w=4u l=0.2u
+ ad=0p pd=0u as=0p ps=0u 
M2 a_25_6# a_9_6# vdd vdd pfet w=4u l=0.2u
+ ad=0p pd=0u as=0p ps=0u 
M3 vdd a_9_6# a_25_6# vdd pfet w=4u l=0.2u
+ ad=0p pd=0u as=0p ps=0u 
M4 a_41_6# a_25_6# vdd vdd pfet w=4u l=0.2u
+ ad=0p pd=0u as=0p ps=0u 
M5 vdd a_25_6# a_41_6# vdd pfet w=4u l=0.2u
+ ad=0p pd=0u as=0p ps=0u 
M6 a_57_6# a_41_6# vdd vdd pfet w=4u l=0.2u
+ ad=0p pd=0u as=0p ps=0u 
M7 vdd a_41_6# a_57_6# vdd pfet w=4u l=0.2u
+ ad=0p pd=0u as=0p ps=0u 
M8 a_73_6# a_57_6# vdd vdd pfet w=4u l=0.2u
+ ad=0p pd=0u as=0p ps=0u 
M9 vdd a_57_6# a_73_6# vdd pfet w=4u l=0.2u
+ ad=0p pd=0u as=0p ps=0u 
M10 Y a_73_6# vdd vdd pfet w=4u l=0.2u
+ ad=0p pd=0u as=0p ps=0u 
M11 vdd a_73_6# Y vdd pfet w=4u l=0.2u
+ ad=0p pd=0u as=0p ps=0u 
M12 a_9_6# A 0 0 nfet w=2u l=0.2u
+ ad=0p pd=0u as=0p ps=0u 
M13 0 A a_9_6# 0 nfet w=2u l=0.2u
+ ad=0p pd=0u as=0p ps=0u 
M14 a_25_6# a_9_6# 0 0 nfet w=2u l=0.2u
+ ad=0p pd=0u as=0p ps=0u 
M15 0 a_9_6# a_25_6# 0 nfet w=2u l=0.2u
+ ad=0p pd=0u as=0p ps=0u 
M16 a_41_6# a_25_6# 0 0 nfet w=2u l=0.2u
+ ad=0p pd=0u as=0p ps=0u 
M17 0 a_25_6# a_41_6# 0 nfet w=2u l=0.2u
+ ad=0p pd=0u as=0p ps=0u 
M18 a_57_6# a_41_6# 0 0 nfet w=2u l=0.2u
+ ad=0p pd=0u as=0p ps=0u 
M19 0 a_41_6# a_57_6# 0 nfet w=2u l=0.2u
+ ad=0p pd=0u as=0p ps=0u 
M20 a_73_6# a_57_6# 0 0 nfet w=2u l=0.2u
+ ad=0p pd=0u as=0p ps=0u 
M21 0 a_57_6# a_73_6# 0 nfet w=2u l=0.2u
+ ad=0p pd=0u as=0p ps=0u 
M22 Y a_73_6# 0 0 nfet w=2u l=0.2u
+ ad=0p pd=0u as=0p ps=0u 
M23 0 a_73_6# Y 0 nfet w=2u l=0.2u
+ ad=0p pd=0u as=0p ps=0u 
.ends CLKBUF2_3

****** CLKBUF2 : Glitched version 4 : glitch at a_57_6# ******

.subckt CLKBUF2_4 vdd 0 A Y
Icharge 0 a_57_6# EXP (0 current_magnitude rise_delay rise_time_constant fall_delay fall_time_constant)
M0 a_9_6# A vdd vdd pfet w=4u l=0.2u
+ ad=0p pd=0u as=0p ps=0u 
M1 vdd A a_9_6# vdd pfet w=4u l=0.2u
+ ad=0p pd=0u as=0p ps=0u 
M2 a_25_6# a_9_6# vdd vdd pfet w=4u l=0.2u
+ ad=0p pd=0u as=0p ps=0u 
M3 vdd a_9_6# a_25_6# vdd pfet w=4u l=0.2u
+ ad=0p pd=0u as=0p ps=0u 
M4 a_41_6# a_25_6# vdd vdd pfet w=4u l=0.2u
+ ad=0p pd=0u as=0p ps=0u 
M5 vdd a_25_6# a_41_6# vdd pfet w=4u l=0.2u
+ ad=0p pd=0u as=0p ps=0u 
M6 a_57_6# a_41_6# vdd vdd pfet w=4u l=0.2u
+ ad=0p pd=0u as=0p ps=0u 
M7 vdd a_41_6# a_57_6# vdd pfet w=4u l=0.2u
+ ad=0p pd=0u as=0p ps=0u 
M8 a_73_6# a_57_6# vdd vdd pfet w=4u l=0.2u
+ ad=0p pd=0u as=0p ps=0u 
M9 vdd a_57_6# a_73_6# vdd pfet w=4u l=0.2u
+ ad=0p pd=0u as=0p ps=0u 
M10 Y a_73_6# vdd vdd pfet w=4u l=0.2u
+ ad=0p pd=0u as=0p ps=0u 
M11 vdd a_73_6# Y vdd pfet w=4u l=0.2u
+ ad=0p pd=0u as=0p ps=0u 
M12 a_9_6# A 0 0 nfet w=2u l=0.2u
+ ad=0p pd=0u as=0p ps=0u 
M13 0 A a_9_6# 0 nfet w=2u l=0.2u
+ ad=0p pd=0u as=0p ps=0u 
M14 a_25_6# a_9_6# 0 0 nfet w=2u l=0.2u
+ ad=0p pd=0u as=0p ps=0u 
M15 0 a_9_6# a_25_6# 0 nfet w=2u l=0.2u
+ ad=0p pd=0u as=0p ps=0u 
M16 a_41_6# a_25_6# 0 0 nfet w=2u l=0.2u
+ ad=0p pd=0u as=0p ps=0u 
M17 0 a_25_6# a_41_6# 0 nfet w=2u l=0.2u
+ ad=0p pd=0u as=0p ps=0u 
M18 a_57_6# a_41_6# 0 0 nfet w=2u l=0.2u
+ ad=0p pd=0u as=0p ps=0u 
M19 0 a_41_6# a_57_6# 0 nfet w=2u l=0.2u
+ ad=0p pd=0u as=0p ps=0u 
M20 a_73_6# a_57_6# 0 0 nfet w=2u l=0.2u
+ ad=0p pd=0u as=0p ps=0u 
M21 0 a_57_6# a_73_6# 0 nfet w=2u l=0.2u
+ ad=0p pd=0u as=0p ps=0u 
M22 Y a_73_6# 0 0 nfet w=2u l=0.2u
+ ad=0p pd=0u as=0p ps=0u 
M23 0 a_73_6# Y 0 nfet w=2u l=0.2u
+ ad=0p pd=0u as=0p ps=0u 
.ends CLKBUF2_4

****** CLKBUF2 : Glitched version 5 : glitch at a_73_6# ******

.subckt CLKBUF2_5 vdd 0 A Y
Icharge 0 a_73_6# EXP (0 current_magnitude rise_delay rise_time_constant fall_delay fall_time_constant)
M0 a_9_6# A vdd vdd pfet w=4u l=0.2u
+ ad=0p pd=0u as=0p ps=0u 
M1 vdd A a_9_6# vdd pfet w=4u l=0.2u
+ ad=0p pd=0u as=0p ps=0u 
M2 a_25_6# a_9_6# vdd vdd pfet w=4u l=0.2u
+ ad=0p pd=0u as=0p ps=0u 
M3 vdd a_9_6# a_25_6# vdd pfet w=4u l=0.2u
+ ad=0p pd=0u as=0p ps=0u 
M4 a_41_6# a_25_6# vdd vdd pfet w=4u l=0.2u
+ ad=0p pd=0u as=0p ps=0u 
M5 vdd a_25_6# a_41_6# vdd pfet w=4u l=0.2u
+ ad=0p pd=0u as=0p ps=0u 
M6 a_57_6# a_41_6# vdd vdd pfet w=4u l=0.2u
+ ad=0p pd=0u as=0p ps=0u 
M7 vdd a_41_6# a_57_6# vdd pfet w=4u l=0.2u
+ ad=0p pd=0u as=0p ps=0u 
M8 a_73_6# a_57_6# vdd vdd pfet w=4u l=0.2u
+ ad=0p pd=0u as=0p ps=0u 
M9 vdd a_57_6# a_73_6# vdd pfet w=4u l=0.2u
+ ad=0p pd=0u as=0p ps=0u 
M10 Y a_73_6# vdd vdd pfet w=4u l=0.2u
+ ad=0p pd=0u as=0p ps=0u 
M11 vdd a_73_6# Y vdd pfet w=4u l=0.2u
+ ad=0p pd=0u as=0p ps=0u 
M12 a_9_6# A 0 0 nfet w=2u l=0.2u
+ ad=0p pd=0u as=0p ps=0u 
M13 0 A a_9_6# 0 nfet w=2u l=0.2u
+ ad=0p pd=0u as=0p ps=0u 
M14 a_25_6# a_9_6# 0 0 nfet w=2u l=0.2u
+ ad=0p pd=0u as=0p ps=0u 
M15 0 a_9_6# a_25_6# 0 nfet w=2u l=0.2u
+ ad=0p pd=0u as=0p ps=0u 
M16 a_41_6# a_25_6# 0 0 nfet w=2u l=0.2u
+ ad=0p pd=0u as=0p ps=0u 
M17 0 a_25_6# a_41_6# 0 nfet w=2u l=0.2u
+ ad=0p pd=0u as=0p ps=0u 
M18 a_57_6# a_41_6# 0 0 nfet w=2u l=0.2u
+ ad=0p pd=0u as=0p ps=0u 
M19 0 a_41_6# a_57_6# 0 nfet w=2u l=0.2u
+ ad=0p pd=0u as=0p ps=0u 
M20 a_73_6# a_57_6# 0 0 nfet w=2u l=0.2u
+ ad=0p pd=0u as=0p ps=0u 
M21 0 a_57_6# a_73_6# 0 nfet w=2u l=0.2u
+ ad=0p pd=0u as=0p ps=0u 
M22 Y a_73_6# 0 0 nfet w=2u l=0.2u
+ ad=0p pd=0u as=0p ps=0u 
M23 0 a_73_6# Y 0 nfet w=2u l=0.2u
+ ad=0p pd=0u as=0p ps=0u 
.ends CLKBUF2_5
